data_image0
_chemical_formula_structural       C54PtH12
_chemical_formula_sum              "C54 Pt1 H12"
_cell_length_a       12.322696074931187
_cell_length_b       19.99999436499959
_cell_length_c       12.322596892774316
_cell_angle_alpha    90.0
_cell_angle_beta     120.00129699720532
_cell_angle_gamma    90.0

_space_group_name_H-M_alt    "P 1"
_space_group_IT_number       1

loop_
  _space_group_symop_operation_xyz
  'x, y, z'

loop_
  _atom_site_type_symbol
  _atom_site_label
  _atom_site_symmetry_multiplicity
  _atom_site_fract_x
  _atom_site_fract_y
  _atom_site_fract_z
  _atom_site_occupancy
  C   C1        1.0  0.0333059804  0.4966281511  0.031657461  1.0000
  C   C2        1.0  0.1674511787  0.4955682674  0.1005555094  1.0000
  C   C3        1.0  0.23511424730000002  0.4955258144  0.0351604184  1.0000
  C   C4        1.0  0.3689596732  0.4982458188  0.1034662297  1.0000
  C   C5        1.0  0.4340002174  0.49303094979999995  0.0349618518  1.0000
  C   C6        1.0  0.5671067025  0.4930011155  0.0995678778  1.0000
  C   C7        1.0  0.6326901782  0.489552984  0.0317007694  1.0000
  C   C8        1.0  0.7658007360000001  0.4913190935  0.0962259299  1.0000
  C   C9        1.0  0.8312256827  0.4947827049  0.0276824548  1.0000
  C   C10       1.0  0.9654249912000001  0.4937806719  0.09660078179999998  1.0000
  C   C11       1.0  0.03183404810000001  0.4882711385  0.22981118140000004  1.0000
  C   C12       1.0  0.1654330832  0.48738872200000005  0.2981246356  1.0000
  C   C13       1.0  0.2347421411  0.4935400657999999  0.2345387205  1.0000
  C   C14       1.0  0.36974598110000007  0.4997606941  0.3053872743  1.0000
  C   C15       1.0  0.4363016761  0.5064388416  0.2367218949  1.0000
  C   C16       1.0  0.5702380917  0.5137519614  0.299196881  1.0000
  C   C17       1.0  0.6348775294  0.50038507  0.2323447303  1.0000
  C   C18       1.0  0.7679740508000001  0.4965603713  0.297396764  1.0000
  C   C19       1.0  0.8330032878  0.4907987513  0.2297382613  1.0000
  C   C20       1.0  0.9659796965  0.48687483810000004  0.2970871498  1.0000
  C   C21       1.0  0.032137459699999996  0.4835597797  0.4310805883  1.0000
  C   C22       1.0  0.1642391519  0.4798461665  0.49897162919999993  1.0000
  C   C23       1.0  0.2292151961  0.4825707425  0.4312774381  1.0000
  C   C24       1.0  0.3608320977  0.4856994444  0.4986563003  1.0000
  C   C25       1.0  0.43067017869999996  0.4964256824  0.43850465739999994  1.0000
  C   C26       1.0  0.646188542  0.5325230264  0.4277573044  1.0000
  C   C27       1.0  0.7754896705  0.517187974  0.4970625095  1.0000
  C   C28       1.0  0.8365866701  0.49885721369999997  0.43091081  1.0000
  C   C29       1.0  0.9677258701  0.48907031010000007  0.4988229498  1.0000
  C   C30       1.0  0.034616246500000024  0.490434201  0.6327646045  1.0000
  C   C31       1.0  0.16637069509999997  0.48370365080000005  0.7007690566  1.0000
  C   C32       1.0  0.2305567825  0.4784179935999999  0.6332580096  1.0000
  C   C33       1.0  0.36290143310000006  0.47862860599999996  0.701558527  1.0000
  C   C34       1.0  0.426873416  0.48426175959999995  0.6346328842  1.0000
  C   C35       1.0  0.5545719735  0.4980326188  0.697824876  1.0000
  C   C36       1.0  0.7755031751  0.5212194755  0.6972769004  1.0000
  C   C37       1.0  0.8414559317  0.5150389727  0.6324222493  1.0000
  C   C38       1.0  0.9711626043000001  0.5008936173  0.7000244858  1.0000
  C   C39       1.0  0.03528138560000001  0.4988228677  0.8333660091  1.0000
  C   C40       1.0  0.16829658099999992  0.4932807565  0.9016661417999999  1.0000
  C   C41       1.0  0.2337261665  0.48722175  0.8346635197  1.0000
  C   C42       1.0  0.36670274610000003  0.4863358786  0.9022179848  1.0000
  C   C43       1.0  0.43210654470000004  0.4825379021  0.8345964079  1.0000
  C   C44       1.0  0.5651157597  0.4868733753  0.8984761689  1.0000
  C   C45       1.0  0.6290901880000002  0.4947105624  0.8287981610000001  1.0000
  C   C46       1.0  0.7640634539000001  0.5006862563  0.8942718001  1.0000
  C   C47       1.0  0.8323399566  0.5077704187  0.8281405906  1.0000
  C   C48       1.0  0.9666306706000001  0.5014758637  0.8977552774  1.0000
  C   C49       1.0  0.6372274555  0.6368624003  0.6602493233  1.0000
  C   C50       1.0  0.7691634905  0.6649196762  0.7337482244  1.0000
  C   C51       1.0  0.7650575163  0.740578277  0.7549545030999999  1.0000
  C   C52       1.0  0.6892282086  0.7558053036  0.819249305  1.0000
  C   C53       1.0  0.5576433606  0.7261849815  0.7455206113  1.0000
  C   C54       1.0  0.5627433554  0.6504188372  0.7257940911  1.0000
  Pt  Pt1       1.0  0.5956456673  0.5378000621  0.5755909275  1.0000
  H   H1        1.0  0.5043584607  0.7351242657  0.7938596933  1.0000
  H   H2        1.0  0.5892758555  0.661490697  0.5673582895  1.0000
  H   H3        1.0  0.8221222008000001  0.6554041879  0.6854165492  1.0000
  H   H4        1.0  0.820493484  0.6401607305  0.8254215855999999  1.0000
  H   H5        1.0  0.8612527586999998  0.7597788462  0.8105664555999998  1.0000
  H   H6        1.0  0.7227955212  0.7666898529  0.6641092155  1.0000
  H   H7        1.0  0.6843005915  0.8100641685999999  0.8305874409  1.0000
  H   H8        1.0  0.7373754086000001  0.7343782449  0.9143494837  1.0000
  H   H9        1.0  0.5057015394  0.7511577299  0.653777816  1.0000
  H   H10       1.0  0.4671615052  0.6304079437  0.6718932335  1.0000
  H   H11       1.0  0.6074089870999999  0.6256440092  0.8175416949999998  1.0000
  H   H12       1.0  0.6165283502  0.5817987672  0.45366142049999997  1.0000
