data_image0
_chemical_formula_structural       C54PtH12
_chemical_formula_sum              "C54 Pt1 H12"
_cell_length_a       12.322696074931187
_cell_length_b       19.99999436499959
_cell_length_c       12.322596892774316
_cell_angle_alpha    90.0
_cell_angle_beta     120.00129699720532
_cell_angle_gamma    90.0

_space_group_name_H-M_alt    "P 1"
_space_group_IT_number       1

loop_
  _space_group_symop_operation_xyz
  'x, y, z'

loop_
  _atom_site_type_symbol
  _atom_site_label
  _atom_site_symmetry_multiplicity
  _atom_site_fract_x
  _atom_site_fract_y
  _atom_site_fract_z
  _atom_site_occupancy
  C   C1        1.0  0.03062885702902023  0.494677926027566  0.030619665575835155  1.0000
  C   C2        1.0  0.16464796035280943  0.4946839882315109  0.09977937365604951  1.0000
  C   C3        1.0  0.23327858494540024  0.49352711118309056  0.035571949652987225  1.0000
  C   C4        1.0  0.36722018108489735  0.4966596145272067  0.10437072243388629  1.0000
  C   C5        1.0  0.43235399697422316  0.49363694516556067  0.0355643846724426  1.0000
  C   C6        1.0  0.5651971782284004  0.4948585409301633  0.09977032210311056  1.0000
  C   C7        1.0  0.6300848585498281  0.49496922542746635  0.030647120029179947  1.0000
  C   C8        1.0  0.7629503840429146  0.49375129539582485  0.09486368385693064  1.0000
  C   C9        1.0  0.8280875528563891  0.4967879482408773  0.026076868707774474  1.0000
  C   C10       1.0  0.9620171887693529  0.49357084318867755  0.09485846144348709  1.0000
  C   C11       1.0  0.02856615187162264  0.48902447132748295  0.22847525103345329  1.0000
  C   C12       1.0  0.1613782294076613  0.4917586151006051  0.2967801774047541  1.0000
  C   C13       1.0  0.23067425155828616  0.49724399862896945  0.23333079483966948  1.0000
  C   C14       1.0  0.3640747178554394  0.5061541403436546  0.30352607847666696  1.0000
  C   C15       1.0  0.4339815541690714  0.5047681208290733  0.23790116339472273  1.0000
  C   C16       1.0  0.5695205220297351  0.5059917444773222  0.30353952386677024  1.0000
  C   C17       1.0  0.6327327528974477  0.497228283575952  0.23333424771867298  1.0000
  C   C18       1.0  0.765500701293623  0.4917737157731847  0.2967557311774034  1.0000
  C   C19       1.0  0.8300213228316646  0.48912872143193414  0.2284675831183525  1.0000
  C   C20       1.0  0.9629597283724372  0.48545652039486353  0.2957901349640238  1.0000
  C   C21       1.0  0.03003364252945763  0.48138543188146893  0.42993641538921656  1.0000
  C   C22       1.0  0.16183714760208054  0.48290891986578893  0.4981869496344392  1.0000
  C   C23       1.0  0.22535905711710444  0.49060744289634295  0.43024657431003943  1.0000
  C   C24       1.0  0.353893544045118  0.5028789179120943  0.4976869487705695  1.0000
  C   C25       1.0  0.42172213622410604  0.5161085457824821  0.43548986852173904  1.0000
  C   C26       1.0  0.64385014883577  0.5156459463334416  0.435546138224169  1.0000
  C   C27       1.0  0.7738381437121552  0.5023948638944536  0.4976864637503421  1.0000
  C   C28       1.0  0.8349912834039512  0.4904453097527585  0.4302169817990154  1.0000
  C   C29       1.0  0.9664916446974774  0.48284946587613736  0.49815781122652397  1.0000
  C   C30       1.0  0.03348055594346917  0.48282340517509814  0.6321906694123995  1.0000
  C   C31       1.0  0.165287378559021  0.48140296781043135  0.7004524364967553  1.0000
  C   C32       1.0  0.22884370833828097  0.48295159539669275  0.6322186141275765  1.0000
  C   C33       1.0  0.36033053963909556  0.49074660388642055  0.7001624707759375  1.0000
  C   C34       1.0  0.42141572195680016  0.5030003383795221  0.6327259436433466  1.0000
  C   C35       1.0  0.5514695064766474  0.5164133938377323  0.6949423535755522  1.0000
  C   C36       1.0  0.7734828125767494  0.5158471981376613  0.6948925268296404  1.0000
  C   C37       1.0  0.8413373422128627  0.502413833697307  0.6327141290615157  1.0000
  C   C38       1.0  0.9699237361944253  0.49036094229396215  0.7001554342991511  1.0000
  C   C39       1.0  0.03391255497386016  0.4916441221081089  0.833635192825122  1.0000
  C   C40       1.0  0.16673592976834453  0.4889799008563004  0.9019531415541775  1.0000
  C   C41       1.0  0.23233819737919337  0.48544965160501913  0.8346140160973249  1.0000
  C   C42       1.0  0.36528660806140933  0.4891391729392379  0.9019356323100194  1.0000
  C   C43       1.0  0.4297891157474603  0.4919919794019799  0.833645599015851  1.0000
  C   C44       1.0  0.5625397886352029  0.49755959840695696  0.8971031165554625  1.0000
  C   C45       1.0  0.625771887430713  0.5064739592875749  0.8269417089714474  1.0000
  C   C46       1.0  0.7612990220201837  0.5049567666348791  0.8925389153675852  1.0000
  C   C47       1.0  0.8311817495495102  0.5060867127044707  0.8269030411491111  1.0000
  C   C48       1.0  0.9645944414099564  0.4971564488755476  0.8970679636715779  1.0000
  C   C49       1.0  0.5757976750367577  0.706245707786319  0.5118268927284172  1.0000
  C   C50       1.0  0.7131912601605858  0.7278592627636588  0.5793787219052412  1.0000
  C   C51       1.0  0.72528247137334  0.8036803085546089  0.5998387616674313  1.0000
  C   C52       1.0  0.6582428601761223  0.8275211986347333  0.6692077218172112  1.0000
  C   C53       1.0  0.5208001396969887  0.8054524059035908  0.6017343509341004  1.0000
  C   C54       1.0  0.5088397425162433  0.7296475676750205  0.5812346415389652  1.0000
  Pt  Pt1       1.0  0.5977688595371355  0.535056087893259  0.5653211743546424  1.0000
  H   H1        1.0  0.47532060961925693  0.821335774621278  0.6548101569541434  1.0000
  H   H2        1.0  0.5275692993210023  0.7264239228403072  0.4156898197626821  1.0000
  H   H3        1.0  0.7586192363535316  0.7117782970520942  0.5263746059947874  1.0000
  H   H4        1.0  0.7630729987846213  0.7023303481566764  0.670865181135179  1.0000
  H   H5        1.0  0.824540090128599  0.8183991247510852  0.6514998008312375  1.0000
  H   H6        1.0  0.6837271538795856  0.8288809758763392  0.508055176324927  1.0000
  H   H7        1.0  0.664864232229209  0.8822112154141752  0.6797713955748792  1.0000
  H   H8        1.0  0.706198106895703  0.8065555765452181  0.764775200338479  1.0000
  H   H9        1.0  0.47041090576629363  0.8307832323155392  0.5100895053694522  1.0000
  H   H10       1.0  0.4096937978347749  0.7147412450922654  0.5295614255339413  1.0000
  H   H11       1.0  0.5506348373050653  0.7041961959048111  0.6727997283064564  1.0000
  H   H12       1.0  0.5695165413263399  0.6510640213532093  0.5020165251642708  1.0000
