data_image0
_chemical_formula_structural       C54PtH12
_chemical_formula_sum              "C54 Pt1 H12"
_cell_length_a       12.322696074931187
_cell_length_b       19.99999436499959
_cell_length_c       12.322596892774316
_cell_angle_alpha    90.0
_cell_angle_beta     120.00129699720532
_cell_angle_gamma    90.0

_space_group_name_H-M_alt    "P 1"
_space_group_IT_number       1

loop_
  _space_group_symop_operation_xyz
  'x, y, z'

loop_
  _atom_site_type_symbol
  _atom_site_label
  _atom_site_symmetry_multiplicity
  _atom_site_fract_x
  _atom_site_fract_y
  _atom_site_fract_z
  _atom_site_occupancy
  C   C1        1.0  0.026175429335773957  0.5030004511590902  0.028657613381270042  1.0000
  C   C2        1.0  0.1598094972615999  0.5008164535403591  0.09655545730997887  1.0000
  C   C3        1.0  0.22786766172857362  0.5020449741581234  0.03146245928379092  1.0000
  C   C4        1.0  0.36163130178568353  0.503631761691802  0.09954847397130136  1.0000
  C   C5        1.0  0.4273891456878167  0.502212616596829  0.031298798902952917  1.0000
  C   C6        1.0  0.5603431992435607  0.502920882500652  0.09675662591722059  1.0000
  C   C7        1.0  0.6260253585760338  0.5015247362245769  0.028466591910400817  1.0000
  C   C8        1.0  0.7590524788241146  0.5017579112587552  0.09407064489555308  1.0000
  C   C9        1.0  0.8246778917308274  0.5039439468354634  0.025897858739820884  1.0000
  C   C10       1.0  0.9584950360693546  0.5018387872054947  0.0941404577946362  1.0000
  C   C11       1.0  0.024489072625063342  0.4968467184619222  0.22711565922721835  1.0000
  C   C12       1.0  0.1576761201292182  0.494082045037689  0.29463252745193214  1.0000
  C   C13       1.0  0.22588588599093923  0.49776551525429624  0.22987409252635632  1.0000
  C   C14       1.0  0.36025263880646957  0.5012060055466009  0.29949442126745157  1.0000
  C   C15       1.0  0.4278811897356966  0.5062998216354521  0.23275285795665931  1.0000
  C   C16       1.0  0.5620289394862946  0.5097517186942189  0.2997065341076239  1.0000
  C   C17       1.0  0.627614026376385  0.5053985107341358  0.23056291372324295  1.0000
  C   C18       1.0  0.7605028249711806  0.5024574050785677  0.295283684549225  1.0000
  C   C19       1.0  0.8259127141052258  0.500015330787573  0.22742874029528204  1.0000
  C   C20       1.0  0.9587633013948665  0.4964809875966223  0.2945314978696566  1.0000
  C   C21       1.0  0.025651543927198983  0.4942384706848923  0.42830587795625874  1.0000
  C   C22       1.0  0.1578282772300232  0.4906049475056346  0.4957011949995977  1.0000
  C   C23       1.0  0.22234936813129896  0.4897518690932655  0.4277989309376247  1.0000
  C   C24       1.0  0.35422991580279484  0.4901783982508727  0.4942612234518599  1.0000
  C   C25       1.0  0.4205186351835275  0.49967579405768414  0.4312264526744864  1.0000
  C   C26       1.0  0.6350500395215037  0.516218923756108  0.43125583888744373  1.0000
  C   C27       1.0  0.7647529939432105  0.5094302425936381  0.4959518993204827  1.0000
  C   C28       1.0  0.8289132325938655  0.5019899691655553  0.4285150420544926  1.0000
  C   C29       1.0  0.9610094810935894  0.4975164134792884  0.4960299569657738  1.0000
  C   C30       1.0  0.028153899672816316  0.49813187548948584  0.6299967380508299  1.0000
  C   C31       1.0  0.16061057870726012  0.49546480725754577  0.6972941250082191  1.0000
  C   C32       1.0  0.22529381516617666  0.4914119088261139  0.629746710080968  1.0000
  C   C33       1.0  0.3580429866874844  0.49111551203907516  0.6972595378949707  1.0000
  C   C34       1.0  0.42341854044169247  0.49022002426224354  0.6303523180256069  1.0000
  C   C35       1.0  0.5538313528489969  0.49749064419602024  0.6923052201378143  1.0000
  C   C36       1.0  0.7671134576445707  0.5214595754530141  0.6953593624349734  1.0000
  C   C37       1.0  0.8322387910812953  0.5112863628411984  0.6310526290952275  1.0000
  C   C38       1.0  0.963729051485877  0.5036039042512572  0.6977049034731054  1.0000
  C   C39       1.0  0.028685544837055512  0.504458375378328  0.8307607217497773  1.0000
  C   C40       1.0  0.16179984329316927  0.5014440980649231  0.8982227530349425  1.0000
  C   C41       1.0  0.22760327708973185  0.49813969645038525  0.8310377563713703  1.0000
  C   C42       1.0  0.36064329728703143  0.4982709950749282  0.8981762203501041  1.0000
  C   C43       1.0  0.4263161486323282  0.49569444993420786  0.8303611400153599  1.0000
  C   C44       1.0  0.5592391180904682  0.49915662611045464  0.8946928779978658  1.0000
  C   C45       1.0  0.6242672596342449  0.5014967751478306  0.8247572165536248  1.0000
  C   C46       1.0  0.7583425403257359  0.5075785259499364  0.8927478458657331  1.0000
  C   C47       1.0  0.8260059752347728  0.5129072776810388  0.8262700735795482  1.0000
  C   C48       1.0  0.9603129390960977  0.5072562788780357  0.8953352664818736  1.0000
  C   C49       1.0  0.6285790587747401  0.6573501104734693  0.5931622560770933  1.0000
  C   C50       1.0  0.7647808841887215  0.6764393708408085  0.6750367864286992  1.0000
  C   C51       1.0  0.7717959434418097  0.7514117024684629  0.7060362419186463  1.0000
  C   C52       1.0  0.6922573919077791  0.7681674861051976  0.7661169123549691  1.0000
  C   C53       1.0  0.5560124214079835  0.7456797624970913  0.6850516824904621  1.0000
  C   C54       1.0  0.5493181719015412  0.6705883495131338  0.6540246060253163  1.0000
  Pt  Pt1       1.0  0.5860806620646735  0.5434387673187968  0.5602175621309465  1.0000
  H   H1        1.0  0.502868579524322  0.7549698099030845  0.7333718876057304  1.0000
  H   H2        1.0  0.59067192989129  0.6888284033478794  0.5081125367305863  1.0000
  H   H3        1.0  0.8181718237891337  0.6654302637753431  0.6276942819178915  1.0000
  H   H4        1.0  0.807389402938482  0.6472742505874802  0.762164814030485  1.0000
  H   H5        1.0  0.8699465679770834  0.7657129569922838  0.7688569445069426  1.0000
  H   H6        1.0  0.7388825617459395  0.780855610653187  0.6195639876524676  1.0000
  H   H7        1.0  0.6959497727714563  0.8221243367920917  0.7844453878895962  1.0000
  H   H8        1.0  0.7327890791157473  0.743159303973592  0.857936304819371  1.0000
  H   H9        1.0  0.5098691411159242  0.7745844379220557  0.59725090759274  1.0000
  H   H10       1.0  0.4511955077353763  0.6555397878729822  0.5925492756613281  1.0000
  H   H11       1.0  0.5856381594112757  0.6416608435024098  0.7411968444267854  1.0000
  H   H12       1.0  0.5760085210762149  0.6084792348728737  0.47793101474980565  1.0000
