data_image0
_chemical_formula_structural       C54PtH12
_chemical_formula_sum              "C54 Pt1 H12"
_cell_length_a       12.3227
_cell_length_b       20.0
_cell_length_c       12.322560100141528
_cell_angle_alpha    90.0
_cell_angle_beta     120.00139567343798
_cell_angle_gamma    90.0

_space_group_name_H-M_alt    "P 1"
_space_group_IT_number       1

loop_
  _space_group_symop_operation_xyz
  'x, y, z'

loop_
  _atom_site_type_symbol
  _atom_site_label
  _atom_site_symmetry_multiplicity
  _atom_site_fract_x
  _atom_site_fract_y
  _atom_site_fract_z
  _atom_site_occupancy
  C   C1        1.0  0.029891997224828125  0.49478911878158205  0.03003576398709304  1.0000
  C   C2        1.0  0.1637527007497348  0.4938603970467895  0.09882246486316902  1.0000
  C   C3        1.0  0.2324144838930388  0.4939032677659862  0.03467700747462375  1.0000
  C   C4        1.0  0.3663714608101771  0.49571524980164966  0.10331589870128056  1.0000
  C   C5        1.0  0.4316481441929378  0.4935569151483239  0.03468434044285475  1.0000
  C   C6        1.0  0.5643779261865643  0.4947372388940043  0.09897140430271434  1.0000
  C   C7        1.0  0.6293979557242843  0.49418756570832506  0.03011156948463285  1.0000
  C   C8        1.0  0.7621646051628541  0.49403615155434233  0.0943265094377048  1.0000
  C   C9        1.0  0.8274521028034048  0.49612388241071664  0.02571551135393511  1.0000
  C   C10       1.0  0.961389352837951  0.4937806858854972  0.09434367956633555  1.0000
  C   C11       1.0  0.027587029667989246  0.4895246291655089  0.22782034828058995  1.0000
  C   C12       1.0  0.1602462526554421  0.4892474090328099  0.2957538204673193  1.0000
  C   C13       1.0  0.2294228336459874  0.4936784568689275  0.23220041658557358  1.0000
  C   C14       1.0  0.3629976155413437  0.4998398318988745  0.3024124736317172  1.0000
  C   C15       1.0  0.43295071001771424  0.5007905397838028  0.23697319218232626  1.0000
  C   C16       1.0  0.5682028885517214  0.5027665638403446  0.3026480709877994  1.0000
  C   C17       1.0  0.6318222911173401  0.49733539849789576  0.2324894523281788  1.0000
  C   C18       1.0  0.7647843734143802  0.4941664004076383  0.29617799232285597  1.0000
  C   C19       1.0  0.8293143337429612  0.4915552431716781  0.22807761928511472  1.0000
  C   C20       1.0  0.962083369502637  0.48806381153738326  0.29524034997814846  1.0000
  C   C21       1.0  0.029058146781623138  0.48505849345193525  0.42931724085158135  1.0000
  C   C22       1.0  0.16053288675451874  0.4831797117010802  0.4974341102828697  1.0000
  C   C23       1.0  0.22407116043746386  0.48625885180639994  0.4290326699432448  1.0000
  C   C24       1.0  0.35358937164659476  0.49317593059144926  0.49652699787616955  1.0000
  C   C25       1.0  0.42113864561474085  0.5056270765305589  0.4344291585472592  1.0000
  C   C26       1.0  0.6420038817167695  0.5109037968684499  0.43477560111865027  1.0000
  C   C27       1.0  0.7729250433870463  0.5026027192868519  0.49730900882987417  1.0000
  C   C28       1.0  0.8344770708928876  0.4939840691320037  0.4296188219323997  1.0000
  C   C29       1.0  0.9660087702279745  0.48803312203111127  0.4976426863558585  1.0000
  C   C30       1.0  0.032995168848384965  0.4880327769422052  0.6315272300006148  1.0000
  C   C31       1.0  0.16440927315427983  0.485212086962883  0.699674636511467  1.0000
  C   C32       1.0  0.22759260917707877  0.4833864971459245  0.6313795530638471  1.0000
  C   C33       1.0  0.3595711259658155  0.48661309064690733  0.6995462342789645  1.0000
  C   C34       1.0  0.42135707020803054  0.4928651769899167  0.6316514770809211  1.0000
  C   C35       1.0  0.5514124559604986  0.5044201031896706  0.6937795908967773  1.0000
  C   C36       1.0  0.7725404369497091  0.5130204621525143  0.6950578838631382  1.0000
  C   C37       1.0  0.840663616928794  0.5033473181518922  0.6325210341046564  1.0000
  C   C38       1.0  0.9697401224298424  0.49419018325218594  0.6997753612924453  1.0000
  C   C39       1.0  0.03351836054579384  0.4946091428416395  0.833101443770948  1.0000
  C   C40       1.0  0.16610770301423886  0.4917459507577355  0.9010571527076028  1.0000
  C   C41       1.0  0.2315581671982477  0.48820358874783987  0.8337538116620478  1.0000
  C   C42       1.0  0.3645219028449536  0.4895821258171276  0.9010468366545683  1.0000
  C   C43       1.0  0.429125872992064  0.48954313579374437  0.8329453355818723  1.0000
  C   C44       1.0  0.5619960161347429  0.49401791738239914  0.8965519481403258  1.0000
  C   C45       1.0  0.6255931216507686  0.49956869094411377  0.826375229681998  1.0000
  C   C46       1.0  0.7607593300450874  0.5014086421051006  0.8920513228496778  1.0000
  C   C47       1.0  0.8307510899029994  0.5042615871278552  0.8266354666742016  1.0000
  C   C48       1.0  0.9643284542427917  0.4979324985050152  0.8967364880292387  1.0000
  C   C49       1.0  0.6068316697841494  0.6849261680221941  0.5636785519424707  1.0000
  C   C50       1.0  0.7438327723508761  0.7052553151405596  0.6436772070679551  1.0000
  C   C51       1.0  0.7520935472674065  0.778868929900544  0.6808782857211843  1.0000
  C   C52       1.0  0.677602355007466  0.7925941775168435  0.7476948915577066  1.0000
  C   C53       1.0  0.5419481017028148  0.7677231867725295  0.6723896585318319  1.0000
  C   C54       1.0  0.5364844151985582  0.6943023449480976  0.6352349427631486  1.0000
  Pt  Pt1       1.0  0.595351141006603  0.5260051189242311  0.5645281827504914  1.0000
  H   H1        1.0  0.4937836244050297  0.7750813801792854  0.7262650314291583  1.0000
  H   H2        1.0  0.5616308212153446  0.7144571273650012  0.47652406392819086  1.0000
  H   H3        1.0  0.7953582201599139  0.6960629326766632  0.5936348688824902  1.0000
  H   H4        1.0  0.7881974373674943  0.6736761977633956  0.7284159466900395  1.0000
  H   H5        1.0  0.8503107431007807  0.7941193279270421  0.7405284747766109  1.0000
  H   H6        1.0  0.7139811835063997  0.8095730396520695  0.5952510578883701  1.0000
  H   H7        1.0  0.6789423985624258  0.8463572347814848  0.7668720275680272  1.0000
  H   H8        1.0  0.7242416821247898  0.7672774056212273  0.8394327357028825  1.0000
  H   H9        1.0  0.4906801833776538  0.7977991101806178  0.5863402287525907  1.0000
  H   H10       1.0  0.4389938100321848  0.6770833968543141  0.579173502464271  1.0000
  H   H11       1.0  0.5805441180488694  0.6627922925262654  0.7200768141629835  1.0000
  H   H12       1.0  0.6004885171827216  0.632032029017091  0.5332492384387774  1.0000
