data_image0
_chemical_formula_structural       C54PtH12
_chemical_formula_sum              "C54 Pt1 H12"
_cell_length_a       12.3227
_cell_length_b       20.0
_cell_length_c       12.322560100141528
_cell_angle_alpha    90.0
_cell_angle_beta     120.00139567343798
_cell_angle_gamma    90.0

_space_group_name_H-M_alt    "P 1"
_space_group_IT_number       1

loop_
  _space_group_symop_operation_xyz
  'x, y, z'

loop_
  _atom_site_type_symbol
  _atom_site_label
  _atom_site_symmetry_multiplicity
  _atom_site_fract_x
  _atom_site_fract_y
  _atom_site_fract_z
  _atom_site_occupancy
  C   C1        1.0  0.02741507479385137  0.5026368773525097  0.028894014092592367  1.0000
  C   C2        1.0  0.1611410521132219  0.5001450452949118  0.09686973040208163  1.0000
  C   C3        1.0  0.22905276097408245  0.49992204968642445  0.03163003204834546  1.0000
  C   C4        1.0  0.36284728444412445  0.5011799443109027  0.09973066784791312  1.0000
  C   C5        1.0  0.4285537469425028  0.49901770287346825  0.03153094811454899  1.0000
  C   C6        1.0  0.5615900425624291  0.4999384744183293  0.09705286393614745  1.0000
  C   C7        1.0  0.6272718850930312  0.49966268162474  0.028714025057060895  1.0000
  C   C8        1.0  0.7603332785777036  0.500119515391808  0.09423244412183603  1.0000
  C   C9        1.0  0.8259567579352999  0.5037136370335177  0.026062373088703315  1.0000
  C   C10       1.0  0.9597968693821728  0.5014301215585529  0.09436344391051701  1.0000
  C   C11       1.0  0.025800092203323525  0.4959866392419312  0.2273555164695231  1.0000
  C   C12       1.0  0.15908626043734617  0.49448612320763863  0.29498837248945076  1.0000
  C   C13       1.0  0.22733593255101056  0.49845849260528274  0.23031643084426376  1.0000
  C   C14       1.0  0.3617464809001992  0.5026019959917075  0.29987370989939216  1.0000
  C   C15       1.0  0.42916601512426555  0.5053911045417444  0.2328364952197881  1.0000
  C   C16       1.0  0.5633861411396905  0.508352837816859  0.299919556717383  1.0000
  C   C17       1.0  0.6288095367518247  0.5024651368534736  0.23084439654210873  1.0000
  C   C18       1.0  0.7616352931209044  0.49911288983674046  0.29549341097468446  1.0000
  C   C19       1.0  0.827117166521735  0.49720730548542263  0.22758365622815163  1.0000
  C   C20       1.0  0.9600339992316258  0.4942006414065553  0.29469844400902523  1.0000
  C   C21       1.0  0.02677504225596163  0.49121273071927424  0.42852091034915485  1.0000
  C   C22       1.0  0.15913637021794766  0.4890541454072752  0.4959349134961393  1.0000
  C   C23       1.0  0.22390435705654102  0.49052741583817894  0.4281688481647621  1.0000
  C   C24       1.0  0.3558167775390607  0.4931168555457142  0.49479185159368605  1.0000
  C   C25       1.0  0.42210169826493166  0.5031992052693814  0.43183708927656134  1.0000
  C   C26       1.0  0.6362387543982188  0.5162927127182524  0.4312293833401648  1.0000
  C   C27       1.0  0.7658200622285821  0.5083153447479895  0.4960489519676349  1.0000
  C   C28       1.0  0.8298243445088637  0.4987605174942016  0.4287358560767435  1.0000
  C   C29       1.0  0.9619279395002074  0.49367345052339123  0.49619426917647497  1.0000
  C   C30       1.0  0.028998885164494066  0.4944038817020954  0.6301694125668549  1.0000
  C   C31       1.0  0.16154133335948073  0.49174475748167623  0.6974933224937713  1.0000
  C   C32       1.0  0.22645197342677698  0.4891950060266619  0.629960588902515  1.0000
  C   C33       1.0  0.35919245209473527  0.49069264126522516  0.6974213317044122  1.0000
  C   C34       1.0  0.4245673449536327  0.49301177730137724  0.6306061941698502  1.0000
  C   C35       1.0  0.5545683569619999  0.5019553052915063  0.6925070710284494  1.0000
  C   C36       1.0  0.7689541622401707  0.523728772329106  0.6955130492925389  1.0000
  C   C37       1.0  0.8334824864701005  0.5111254993844673  0.6311341579625803  1.0000
  C   C38       1.0  0.9646245479921574  0.5014371663593659  0.6977669294060831  1.0000
  C   C39       1.0  0.029715541724405232  0.5026068032459663  0.8308594691566857  1.0000
  C   C40       1.0  0.16279275278535232  0.498511384040967  0.8983739310156463  1.0000
  C   C41       1.0  0.22863009816807267  0.4944843760846883  0.831257275332435  1.0000
  C   C42       1.0  0.36174472105574945  0.4950583990132967  0.8983983951464056  1.0000
  C   C43       1.0  0.42748104624126615  0.49424278721514425  0.8305802532749315  1.0000
  C   C44       1.0  0.5603318276410377  0.4989456159484874  0.8949276957492325  1.0000
  C   C45       1.0  0.6252002562906033  0.5038605592529949  0.8249741521783428  1.0000
  C   C46       1.0  0.7595842856494608  0.5091193114545032  0.8929634386030032  1.0000
  C   C47       1.0  0.8273613062297425  0.5144222284722374  0.8264973193511119  1.0000
  C   C48       1.0  0.9614638024314017  0.5070077305893668  0.8954626735194596  1.0000
  C   C49       1.0  0.6263343973060385  0.6629988265874418  0.5883994392606772  1.0000
  C   C50       1.0  0.7596920965649315  0.688236282314665  0.663718123388955  1.0000
  C   C51       1.0  0.7544060843623152  0.7646495377981539  0.678528514141205  1.0000
  C   C52       1.0  0.675884266575345  0.7833457643403943  0.7388403385923921  1.0000
  C   C53       1.0  0.5443669166755077  0.7529982178262773  0.6679703001948712  1.0000
  C   C54       1.0  0.5498643907307309  0.6766910582388794  0.6522301564575945  1.0000
  Pt  Pt1       1.0  0.5885427652110042  0.5469358961378001  0.5602709695411536  1.0000
  H   H1        1.0  0.4921890366398917  0.7634269011383501  0.7169035231799621  1.0000
  H   H2        1.0  0.5816481814964218  0.6913131642252296  0.4994614147625379  1.0000
  H   H3        1.0  0.8134565203644997  0.6765523566176275  0.6170592575542176  1.0000
  H   H4        1.0  0.8081066243982225  0.6643153756813408  0.7564000172036193  1.0000
  H   H5        1.0  0.8498224659163703  0.7847813541693793  0.7338497127081945  1.0000
  H   H6        1.0  0.7130285523304618  0.7881908588353403  0.5852874763187208  1.0000
  H   H7        1.0  0.6691897044089752  0.8380632675338426  0.7425891839060125  1.0000
  H   H8        1.0  0.7235463001373756  0.7657653188906762  0.8366378284004115  1.0000
  H   H9        1.0  0.49123676319393506  0.7762193597564756  0.5746484693123057  1.0000
  H   H10       1.0  0.45408160946111475  0.6567852514693238  0.5979548001185118  1.0000
  H   H11       1.0  0.5942592727403498  0.652619684334711  0.7448409127338831  1.0000
  H   H12       1.0  0.5838494259280178  0.6108133615375833  0.4781155472193222  1.0000
