data_image0
_chemical_formula_structural       C54PtH12
_chemical_formula_sum              "C54 Pt1 H12"
_cell_length_a       12.3227
_cell_length_b       20.0
_cell_length_c       12.322560100141528
_cell_angle_alpha    90.0
_cell_angle_beta     120.00139567343798
_cell_angle_gamma    90.0

_space_group_name_H-M_alt    "P 1"
_space_group_IT_number       1

loop_
  _space_group_symop_operation_xyz
  'x, y, z'

loop_
  _atom_site_type_symbol
  _atom_site_label
  _atom_site_symmetry_multiplicity
  _atom_site_fract_x
  _atom_site_fract_y
  _atom_site_fract_z
  _atom_site_occupancy
  C   C1        1.0  0.030941569648501095  0.5000080448342988  0.029622492761583106  1.0000
  C   C2        1.0  0.16503472413019663  0.49816866770339874  0.09847186040441354  1.0000
  C   C3        1.0  0.23276820252820246  0.49728448446013795  0.03320084103047546  1.0000
  C   C4        1.0  0.3666224541526667  0.499529216141619  0.10145399836256357  1.0000
  C   C5        1.0  0.43169412029771775  0.49500528087304974  0.03298301434149495  1.0000
  C   C6        1.0  0.5647983106517382  0.4948485757156781  0.09732012439880694  1.0000
  C   C7        1.0  0.6303904166661056  0.4937074562044906  0.029374642782676107  1.0000
  C   C8        1.0  0.7634879743694677  0.4948270856733344  0.09401015187883117  1.0000
  C   C9        1.0  0.8288505283580291  0.4996147029375168  0.025551220399717994  1.0000
  C   C10       1.0  0.9630478995769234  0.49746613753357827  0.09452833649205433  1.0000
  C   C11       1.0  0.029530416400129843  0.4912795434794764  0.2277418882405688  1.0000
  C   C12       1.0  0.1630799723960455  0.49114098639049647  0.29611381583535296  1.0000
  C   C13       1.0  0.23226633408766387  0.49684721058270837  0.23242423296430248  1.0000
  C   C14       1.0  0.36722324541354284  0.5029844818815231  0.3030703065522226  1.0000
  C   C15       1.0  0.4340514033379321  0.5075610708116584  0.23458253525731454  1.0000
  C   C16       1.0  0.5681035298500375  0.5132812224793476  0.2971278213403903  1.0000
  C   C17       1.0  0.632644394419924  0.5001666501546163  0.2302621475206441  1.0000
  C   C18       1.0  0.7656496964878974  0.4959987397340661  0.295300020469656  1.0000
  C   C19       1.0  0.8307175344309129  0.49202633226772297  0.22752551772627053  1.0000
  C   C20       1.0  0.9637290657455406  0.48859324036345253  0.2949775612783437  1.0000
  C   C21       1.0  0.03002545570100245  0.4849130788639018  0.4290677596090364  1.0000
  C   C22       1.0  0.16213280932665947  0.483365999526464  0.4970814252268901  1.0000
  C   C23       1.0  0.22697533258523653  0.48745124602027917  0.4294599742539361  1.0000
  C   C24       1.0  0.35815703161670964  0.4925880856703311  0.4968862061392334  1.0000
  C   C25       1.0  0.4276843396501001  0.5021025666566834  0.43619027652574305  1.0000
  C   C26       1.0  0.6443645024184969  0.5317416370350591  0.4256034663418163  1.0000
  C   C27       1.0  0.7734113141575178  0.5160719015760153  0.4950217887715699  1.0000
  C   C28       1.0  0.8342494089074786  0.49749748020304607  0.42892055485630437  1.0000
  C   C29       1.0  0.9655579538057826  0.48885292655669343  0.4968941769819952  1.0000
  C   C30       1.0  0.03227462156227337  0.4906207632423272  0.6308854366047993  1.0000
  C   C31       1.0  0.16413952101633675  0.48551070971083493  0.6988794654729993  1.0000
  C   C32       1.0  0.2285220932043421  0.48238227323048016  0.6313398989290815  1.0000
  C   C33       1.0  0.3607220669164722  0.48531691574436187  0.6995553100783256  1.0000
  C   C34       1.0  0.42422847441800543  0.49306309171481155  0.632739533468305  1.0000
  C   C35       1.0  0.5516609125332037  0.5078982323896574  0.695643698938648  1.0000
  C   C36       1.0  0.7736688607535154  0.5259933693790706  0.694902651429931  1.0000
  C   C37       1.0  0.8393289351722475  0.5160469174672659  0.630320869583599  1.0000
  C   C38       1.0  0.9687197586469406  0.501434866208836  0.6980771606272589  1.0000
  C   C39       1.0  0.03293457598323707  0.5005050108647582  0.8314444048936414  1.0000
  C   C40       1.0  0.1658949499553467  0.49475612171373107  0.8997465916662524  1.0000
  C   C41       1.0  0.23140762903748383  0.48914456513978505  0.8327432242214656  1.0000
  C   C42       1.0  0.3643833159395495  0.48954505392888514  0.9001745579746935  1.0000
  C   C43       1.0  0.4298440536386064  0.48844066776909073  0.8324697296258534  1.0000
  C   C44       1.0  0.5626703354561028  0.4937906485751107  0.8961521807793554  1.0000
  C   C45       1.0  0.6264556276970505  0.5034819728165227  0.8266272729112057  1.0000
  C   C46       1.0  0.7618329227793771  0.5076208492701179  0.8924097363136285  1.0000
  C   C47       1.0  0.8303194665460576  0.5134232874640555  0.8262023088021377  1.0000
  C   C48       1.0  0.9643412436303147  0.5049964394251564  0.8957156753091455  1.0000
  C   C49       1.0  0.629071398283105  0.645346449194484  0.6365704797175248  1.0000
  C   C50       1.0  0.7602666136857748  0.67447443060106  0.7027467822528258  1.0000
  C   C51       1.0  0.754768726574713  0.7510797519436763  0.7129760729433191  1.0000
  C   C52       1.0  0.6805745667682866  0.7709476310935011  0.7768973566749681  1.0000
  C   C53       1.0  0.5491589037482008  0.7407245120256235  0.7083768795558184  1.0000
  C   C54       1.0  0.5547473572487565  0.6639293169331314  0.6999813839532064  1.0000
  Pt  Pt1       1.0  0.5938677976199132  0.5428952614223024  0.5707316205763902  1.0000
  H   H1        1.0  0.496206646883903  0.7537313143730737  0.7554367178872582  1.0000
  H   H2        1.0  0.5788140236301421  0.6654083551265271  0.5397860221454006  1.0000
  H   H3        1.0  0.8105027777949897  0.6615882759016105  0.6529409122496556  1.0000
  H   H4        1.0  0.8142632820340321  0.6531710213100527  0.7973745925238908  1.0000
  H   H5        1.0  0.8505982142406714  0.7711442287240686  0.7642080816892328  1.0000
  H   H6        1.0  0.7102053995163808  0.7732690573655836  0.6184492914546228  1.0000
  H   H7        1.0  0.6752796894126758  0.8256970841635538  0.7811915552822459  1.0000
  H   H8        1.0  0.7300427024734796  0.752953048402633  0.8744827481629776  1.0000
  H   H9        1.0  0.4968237529387858  0.7618644649822484  0.6131240538037666  1.0000
  H   H10       1.0  0.4591455633754801  0.6437165234751208  0.648067897517503  1.0000
  H   H11       1.0  0.5992141933518597  0.6427596712613748  0.7948962158604546  1.0000
  H   H12       1.0  0.6179354430161268  0.5827824230442837  0.44912310541845035  1.0000
