data_image0
_chemical_formula_structural       C54PtH12
_chemical_formula_sum              "C54 Pt1 H12"
_cell_length_a       12.3227
_cell_length_b       20.0
_cell_length_c       12.322560100141528
_cell_angle_alpha    90.0
_cell_angle_beta     120.00139567343798
_cell_angle_gamma    90.0

_space_group_name_H-M_alt    "P 1"
_space_group_IT_number       1

loop_
  _space_group_symop_operation_xyz
  'x, y, z'

loop_
  _atom_site_type_symbol
  _atom_site_label
  _atom_site_symmetry_multiplicity
  _atom_site_fract_x
  _atom_site_fract_y
  _atom_site_fract_z
  _atom_site_occupancy
  C   C1        1.0  0.02820399323107257  0.5035245161133386  0.027014348319178802  1.0000
  C   C2        1.0  0.16229133713235483  0.501325824568572  0.09583896917784628  1.0000
  C   C3        1.0  0.22998038838422122  0.5004733750315371  0.03052655133691087  1.0000
  C   C4        1.0  0.36383399859532833  0.5024290439819518  0.09875891213561189  1.0000
  C   C5        1.0  0.429005548569914  0.4984128567199473  0.030316671038186895  1.0000
  C   C6        1.0  0.5621158839795537  0.4981804831635958  0.09463144570869757  1.0000
  C   C7        1.0  0.6277343737776702  0.49753821986217583  0.02672405298062347  1.0000
  C   C8        1.0  0.7608382808223236  0.4986848175709496  0.09146239618554927  1.0000
  C   C9        1.0  0.8261810020127617  0.503572433455509  0.023036161935119554  1.0000
  C   C10       1.0  0.9603611542848826  0.5012513697160652  0.09198528283729868  1.0000
  C   C11       1.0  0.026822571273459377  0.495059862590574  0.2251883787739817  1.0000
  C   C12       1.0  0.16035915238362872  0.49454182475297437  0.2935578896342403  1.0000
  C   C13       1.0  0.22948190417697056  0.4997591172865078  0.22977092004232297  1.0000
  C   C14       1.0  0.3644953041444785  0.5051262203278873  0.3003989494880239  1.0000
  C   C15       1.0  0.4312244110419413  0.5097105054596798  0.2318820000857783  1.0000
  C   C16       1.0  0.5652860647000476  0.5152168328646165  0.29449780762361183  1.0000
  C   C17       1.0  0.6299462417710623  0.502800554003095  0.22757526002807485  1.0000
  C   C18       1.0  0.7629372173182191  0.49893209573769204  0.292684267414823  1.0000
  C   C19       1.0  0.8280600788963054  0.49562741185525144  0.2249224796541523  1.0000
  C   C20       1.0  0.9610582413379543  0.49238948898186996  0.292434212068521  1.0000
  C   C21       1.0  0.02736523409962012  0.4886837104392669  0.4264980375289733  1.0000
  C   C22       1.0  0.1594578238544209  0.4872683446429662  0.49454085553538557  1.0000
  C   C23       1.0  0.22427036987674154  0.49090433414593604  0.4269006864461332  1.0000
  C   C24       1.0  0.3555397482174714  0.4954895204262375  0.49433349871301224  1.0000
  C   C25       1.0  0.4250140098713181  0.5039764787111364  0.43348286631161187  1.0000
  C   C26       1.0  0.6413184173158398  0.5334751538941712  0.42278853839888536  1.0000
  C   C27       1.0  0.7703170494534135  0.518155574764099  0.492342992831497  1.0000
  C   C28       1.0  0.8314666473081084  0.5001679739150863  0.42626565123829463  1.0000
  C   C29       1.0  0.962872978235384  0.4921474743192484  0.4943165015986791  1.0000
  C   C30       1.0  0.02952404153711582  0.49393788434654545  0.6283083953937609  1.0000
  C   C31       1.0  0.16148534311866508  0.4894036564404541  0.696288271815948  1.0000
  C   C32       1.0  0.22588166793752462  0.4864546174276849  0.6287758522948019  1.0000
  C   C33       1.0  0.35807916818401747  0.48938946520809345  0.6969658238330901  1.0000
  C   C34       1.0  0.4217596516596115  0.49662837135156696  0.6302327717129454  1.0000
  C   C35       1.0  0.5492148016596006  0.5115638857913692  0.6929207310157393  1.0000
  C   C36       1.0  0.7706729319968859  0.5290213592461289  0.692095420666316  1.0000
  C   C37       1.0  0.8362429152577011  0.5184435037595583  0.6276545517376307  1.0000
  C   C38       1.0  0.9658053068525029  0.5042746242544899  0.6954743448103733  1.0000
  C   C39       1.0  0.030126224280078134  0.5037297661305699  0.8288371203021441  1.0000
  C   C40       1.0  0.16313535897618975  0.4981967631146903  0.8971038059929967  1.0000
  C   C41       1.0  0.2287144554316369  0.4929605927690459  0.8301234412465612  1.0000
  C   C42       1.0  0.36169574533694204  0.4934568635325156  0.8975134611670998  1.0000
  C   C43       1.0  0.4271890861260041  0.49257207732725017  0.8298585672718027  1.0000
  C   C44       1.0  0.559992574867141  0.49788178189963583  0.8935306760836672  1.0000
  C   C45       1.0  0.6237827797892641  0.5075072302431596  0.8239931548352926  1.0000
  C   C46       1.0  0.7591494915310251  0.5115413120186979  0.8899039157794773  1.0000
  C   C47       1.0  0.8275118660606385  0.517062732992504  0.823587792116609  1.0000
  C   C48       1.0  0.9615764411604412  0.5084637874245436  0.8931053484195786  1.0000
  C   C49       1.0  0.6271768121262667  0.6503967869632871  0.6197937460408279  1.0000
  C   C50       1.0  0.7579396891345836  0.6799851802629537  0.6826810346432902  1.0000
  C   C51       1.0  0.7506519101645792  0.756941753626069  0.6854972246813908  1.0000
  C   C52       1.0  0.6757721206744733  0.7797325924581477  0.7471124403984012  1.0000
  C   C53       1.0  0.5451106126651997  0.7485167945276785  0.6823020249931322  1.0000
  C   C54       1.0  0.5525728573297385  0.6715394259889917  0.6812841955818277  1.0000
  Pt  Pt1       1.0  0.5908222187830737  0.5457654424832529  0.5666825980404744  1.0000
  H   H1        1.0  0.49232585219979225  0.7634970097955176  0.7285234057820242  1.0000
  H   H2        1.0  0.5767252080321177  0.6685176138272917  0.5215911899281707  1.0000
  H   H3        1.0  0.8079494479718976  0.6651544565233797  0.6335673871602235  1.0000
  H   H4        1.0  0.8127673542731778  0.6610777190476086  0.7790703397132515  1.0000
  H   H5        1.0  0.8459850075377761  0.777759515490488  0.734982874204773  1.0000
  H   H6        1.0  0.7059801236721823  0.7765058301835761  0.5889835822660592  1.0000
  H   H7        1.0  0.6689021519389516  0.8345890531439374  0.7454122894176509  1.0000
  H   H8        1.0  0.7258343462652439  0.7648137185063907  0.8464844413857078  1.0000
  H   H9        1.0  0.4916944980335659  0.7669564866420227  0.5850966420413137  1.0000
  H   H10       1.0  0.4574246216742447  0.6506115494037304  0.6308660500512382  1.0000
  H   H11       1.0  0.5975864133173624  0.652616798082532  0.7778377573739665  1.0000
  H   H12       1.0  0.6134003743839838  0.5846573680683863  0.4457599256267105  1.0000
