data_image0
_chemical_formula_structural       C54PtH12
_chemical_formula_sum              "C54 Pt1 H12"
_cell_length_a       12.3227
_cell_length_b       20.0
_cell_length_c       12.322560100141528
_cell_angle_alpha    90.0
_cell_angle_beta     120.00139567343798
_cell_angle_gamma    90.0

_space_group_name_H-M_alt    "P 1"
_space_group_IT_number       1

loop_
  _space_group_symop_operation_xyz
  'x, y, z'

loop_
  _atom_site_type_symbol
  _atom_site_label
  _atom_site_symmetry_multiplicity
  _atom_site_fract_x
  _atom_site_fract_y
  _atom_site_fract_z
  _atom_site_occupancy
  C   C1        1.0  0.027677172623018845  0.5002743493889713  0.028624470535899803  1.0000
  C   C2        1.0  0.16138731300764406  0.4984406413552498  0.09720403225548918  1.0000
  C   C3        1.0  0.23005350222015727  0.49859639692066415  0.03299323547709789  1.0000
  C   C4        1.0  0.36395621867484873  0.4995384922174747  0.1015287413145122  1.0000
  C   C5        1.0  0.4293442586558101  0.49762033556921204  0.03299736895012715  1.0000
  C   C6        1.0  0.5620891519346077  0.4987617976842524  0.09738407061025434  1.0000
  C   C7        1.0  0.6271478987706162  0.4982243879927519  0.02864548571324259  1.0000
  C   C8        1.0  0.7599337205146737  0.4988195821453705  0.09294638610042583  1.0000
  C   C9        1.0  0.8252494963611672  0.5011115715889458  0.02443447533412523  1.0000
  C   C10       1.0  0.9591747744651872  0.4991799106532435  0.09298159839768279  1.0000
  C   C11       1.0  0.025278896664181816  0.494347972272269  0.22636387177758732  1.0000
  C   C12       1.0  0.15784655154293326  0.4924549432615596  0.29415068955190043  1.0000
  C   C13       1.0  0.22695166076466172  0.49653447498712744  0.2304587606473942  1.0000
  C   C14       1.0  0.3606559753350246  0.5007535499923195  0.3006313677174845  1.0000
  C   C15       1.0  0.43053513616007316  0.5030879621499581  0.23526892580124978  1.0000
  C   C16       1.0  0.5657268649608985  0.5053234126913212  0.3009290768701455  1.0000
  C   C17       1.0  0.6295131491204354  0.5012465620564626  0.23086140252253062  1.0000
  C   C18       1.0  0.762481303614492  0.49888580321432663  0.29470353089946943  1.0000
  C   C19       1.0  0.82709493057918  0.49665144229937275  0.22667892028115735  1.0000
  C   C20       1.0  0.9597851492859935  0.49314566296616935  0.29382352164378356  1.0000
  C   C21       1.0  0.02673138271527351  0.4900969994976887  0.4278910559400561  1.0000
  C   C22       1.0  0.15805700529818717  0.48681161465630735  0.49592370168873295  1.0000
  C   C23       1.0  0.221571884352871  0.4880815211197256  0.4273804506159606  1.0000
  C   C24       1.0  0.3514082216423097  0.4919619014491692  0.49492781067654684  1.0000
  C   C25       1.0  0.41909345155821226  0.5037996149673384  0.43282159602568354  1.0000
  C   C26       1.0  0.6391937159753923  0.5127145616140312  0.4329832201347927  1.0000
  C   C27       1.0  0.7704602171140964  0.5067652559392369  0.49576806784901195  1.0000
  C   C28       1.0  0.8321964706733602  0.49913027400425625  0.42810999673585787  1.0000
  C   C29       1.0  0.9637556439704356  0.4936580731585803  0.4961887542904168  1.0000
  C   C30       1.0  0.030761079627405822  0.49393683709376557  0.6300359228124851  1.0000
  C   C31       1.0  0.162069059904259  0.4904063033828985  0.6980904994748778  1.0000
  C   C32       1.0  0.22516111601870814  0.48700514459506544  0.6298359151004822  1.0000
  C   C33       1.0  0.35729443054004495  0.4883251850590193  0.698096731144704  1.0000
  C   C34       1.0  0.41931773189753807  0.4916101354402287  0.6301444628452798  1.0000
  C   C35       1.0  0.549533407245026  0.5025939248577928  0.6922546863035514  1.0000
  C   C36       1.0  0.7699515205729812  0.5160732040119829  0.6937109937617266  1.0000
  C   C37       1.0  0.8382486074912149  0.5081790350869381  0.6310240607576868  1.0000
  C   C38       1.0  0.9675517069703222  0.5002493255608913  0.6982951302941403  1.0000
  C   C39       1.0  0.03125609277450566  0.5006397454948901  0.8315784088911247  1.0000
  C   C40       1.0  0.1637990265687424  0.4973086694843515  0.8993946585855994  1.0000
  C   C41       1.0  0.22923545667777917  0.4932692254375748  0.8321368904656748  1.0000
  C   C42       1.0  0.36223324444192573  0.4937042074532292  0.8994247521805977  1.0000
  C   C43       1.0  0.42691375271151855  0.49232789503788177  0.8314420211067163  1.0000
  C   C44       1.0  0.5598099039761308  0.49671554974272153  0.8951627890868615  1.0000
  C   C45       1.0  0.6235361486489736  0.5009481882343351  0.8250062618676305  1.0000
  C   C46       1.0  0.7584852987027558  0.5050401984344249  0.8906663013012274  1.0000
  C   C47       1.0  0.828538446340809  0.50862742865395  0.825353687332632  1.0000
  C   C48       1.0  0.9622035503747625  0.5036482419970548  0.8954048534948366  1.0000
  C   C49       1.0  0.6179183404758919  0.6743150665065643  0.5726770778722462  1.0000
  C   C50       1.0  0.7540819643299724  0.6953127561045808  0.6546811053387761  1.0000
  C   C51       1.0  0.7554468380495207  0.7702304744243671  0.6806076066288397  1.0000
  C   C52       1.0  0.6763634020753186  0.7863987182380957  0.7417886170991848  1.0000
  C   C53       1.0  0.5436679228840914  0.7569520613740104  0.670028916647889  1.0000
  C   C54       1.0  0.5465212327914694  0.6824487123933585  0.6434921740020132  1.0000
  Pt  Pt1       1.0  0.5920369708197507  0.5251092801623134  0.5628349252809289  1.0000
  H   H1        1.0  0.49403793514113753  0.7656621218570514  0.7220779169492033  1.0000
  H   H2        1.0  0.5734521493052955  0.7054162495882652  0.48764536782743606  1.0000
  H   H3        1.0  0.8096149103356897  0.6839079762363178  0.6096364618834508  1.0000
  H   H4        1.0  0.7970159314220944  0.6669995583516519  0.7434313399979444  1.0000
  H   H5        1.0  0.8516737724616659  0.7886341658456621  0.7393456002825705  1.0000
  H   H6        1.0  0.7163837078356416  0.7966188694977492  0.5902046965201918  1.0000
  H   H7        1.0  0.6710105595827485  0.8408509121668492  0.7502208240293143  1.0000
  H   H8        1.0  0.7241382400127434  0.7662851993965544  0.8379041135385501  1.0000
  H   H9        1.0  0.4895672833979678  0.7827678968415115  0.5793448068840658  1.0000
  H   H10       1.0  0.45125536120209886  0.6618156324551219  0.5903226949033603  1.0000
  H   H11       1.0  0.5943189696427771  0.6544001109016894  0.7324714216708358  1.0000
  H   H12       1.0  0.6097057261216783  0.6230762069440703  0.5331626557336495  1.0000
