data_image0
_chemical_formula_structural       C54PtH12
_chemical_formula_sum              "C54 Pt1 H12"
_cell_length_a       12.3227
_cell_length_b       20.0
_cell_length_c       12.322560100141528
_cell_angle_alpha    90.0
_cell_angle_beta     120.00139567343798
_cell_angle_gamma    90.0

_space_group_name_H-M_alt    "P 1"
_space_group_IT_number       1

loop_
  _space_group_symop_operation_xyz
  'x, y, z'

loop_
  _atom_site_type_symbol
  _atom_site_label
  _atom_site_symmetry_multiplicity
  _atom_site_fract_x
  _atom_site_fract_y
  _atom_site_fract_z
  _atom_site_occupancy
  C   C1        1.0  0.0305864454  0.4946405908  0.0305850298  1.0000
  C   C2        1.0  0.1646910017  0.4946498868  0.099809691  1.0000
  C   C3        1.0  0.23326131630000002  0.4935192407  0.0355972929  1.0000
  C   C4        1.0  0.36725880740000005  0.49668325170000005  0.1044446117  1.0000
  C   C5        1.0  0.4323991165  0.4936283376000001  0.0355884494  1.0000
  C   C6        1.0  0.5651835755  0.4948310919  0.0998003745  1.0000
  C   C7        1.0  0.630095923  0.4949380978  0.0306120759  1.0000
  C   C8        1.0  0.7629018504000001  0.49374947460000007  0.0948368742  1.0000
  C   C9        1.0  0.8280494567000001  0.4968153177  0.025991564  1.0000
  C   C10       1.0  0.9620422353  0.4935655539  0.0948354558  1.0000
  C   C11       1.0  0.028568838200000002  0.48900210880000006  0.2285176369  1.0000
  C   C12       1.0  0.1613351503  0.4917474177  0.2967456984  1.0000
  C   C13       1.0  0.23071491520000004  0.4972728984  0.23338087249999998  1.0000
  C   C14       1.0  0.36406164780000005  0.5061831277  0.3035477245  1.0000
  C   C15       1.0  0.43397534820000006  0.5047491133  0.2378814257  1.0000
  C   C16       1.0  0.5695557491  0.5060232356  0.3035622599  1.0000
  C   C17       1.0  0.6327454276  0.4972609097  0.23338771999999997  1.0000
  C   C18       1.0  0.7655158992  0.4917742287  0.2967221717  1.0000
  C   C19       1.0  0.8300635683000002  0.48911373810000003  0.22850936590000004  1.0000
  C   C20       1.0  0.9629577519  0.4854355083  0.2957855797  1.0000
  C   C21       1.0  0.03000070390000004  0.4813600415  0.42987770110000006  1.0000
  C   C22       1.0  0.1618359067  0.4828786264  0.49813907869999996  1.0000
  C   C23       1.0  0.2254167615  0.49060776820000007  0.4302531517  1.0000
  C   C24       1.0  0.3539455523  0.5029211708  0.497614475  1.0000
  C   C25       1.0  0.42155393060000007  0.5160617265000002  0.43538802330000004  1.0000
  C   C26       1.0  0.6439070002000001  0.5155880106  0.4354441535  1.0000
  C   C27       1.0  0.7737081617  0.5024333011  0.4976131556  1.0000
  C   C28       1.0  0.8349430776  0.49045173020000005  0.4302272146  1.0000
  C   C29       1.0  0.9664550416000001  0.4828272759  0.4981121598  1.0000
  C   C30       1.0  0.03347388399999999  0.4828043683  0.632222456  1.0000
  C   C31       1.0  0.1653170564  0.48137697420000003  0.7005058148  1.0000
  C   C32       1.0  0.2288782001  0.4829211181  0.6322521184  1.0000
  C   C33       1.0  0.3603803249  0.4907477908000001  0.7001463856  1.0000
  C   C34       1.0  0.4215466403  0.5030417009  0.6327952147  1.0000
  C   C35       1.0  0.551401768  0.5163673613  0.6950508838  1.0000
  C   C36       1.0  0.7736526485000002  0.5157880738  0.6950021001  1.0000
  C   C37       1.0  0.8412785481  0.5024481851  0.6327900657  1.0000
  C   C38       1.0  0.9698638177  0.4903648064000001  0.7001362261  1.0000
  C   C39       1.0  0.033966763299999966  0.4916363872  0.8336638050999999  1.0000
  C   C40       1.0  0.1667455239  0.48896135650000006  0.9019190184  1.0000
  C   C41       1.0  0.2323417457  0.48543158090000005  0.8346248144999999  1.0000
  C   C42       1.0  0.36524484730000006  0.48911793330000003  0.9018990588000001  1.0000
  C   C43       1.0  0.4297722837  0.4919795604  0.8336768812  1.0000
  C   C44       1.0  0.5625281744  0.49759355510000003  0.8970418708  1.0000
  C   C45       1.0  0.6257383920000001  0.5065042868000001  0.8269133790000001  1.0000
  C   C46       1.0  0.7613063542  0.5049376819  0.8925482813000001  1.0000
  C   C47       1.0  0.8311843757  0.5061084503000001  0.8268779859000001  1.0000
  C   C48       1.0  0.9645496457  0.4971874206  0.8970083367  1.0000
  C   C49       1.0  0.5758038108000001  0.7062316198  0.5118250111  1.0000
  C   C50       1.0  0.7132053849  0.7278566761  0.5793831075  1.0000
  C   C51       1.0  0.7252958980000002  0.8036943106  0.5998406831  1.0000
  C   C52       1.0  0.6582447785000001  0.8275368818000001  0.6692188915  1.0000
  C   C53       1.0  0.5207752576  0.8054630763000001  0.6017261116  1.0000
  C   C54       1.0  0.5088284544  0.7296553237  0.5812409787  1.0000
  Pt  Pt1       1.0  0.5977702781  0.5352140981  0.5653206002  1.0000
  H   H1        1.0  0.47531936360000004  0.8213416524  0.6548033097  1.0000
  H   H2        1.0  0.5275701818  0.7264106129000001  0.41568512849999995  1.0000
  H   H3        1.0  0.7586206218  0.7117872938  0.5263809484  1.0000
  H   H4        1.0  0.7630958593000001  0.7023304166  0.6708768846  1.0000
  H   H5        1.0  0.8245395494  0.8184079979000001  0.6514962708  1.0000
  H   H6        1.0  0.6837283324  0.8288878465  0.5080459626  1.0000
  H   H7        1.0  0.6648673102  0.8822191207  0.6797709607  1.0000
  H   H8        1.0  0.7062014159000001  0.8065670847  0.7647852752000001  1.0000
  H   H9        1.0  0.4703974155  0.830794026  0.5100837876  1.0000
  H   H10       1.0  0.4096935930000001  0.7147443999  0.5295597809  1.0000
  H   H11       1.0  0.5506266447000001  0.7041978630000001  0.6728074687  1.0000
  H   H12       1.0  0.5695308066  0.6510669023000001  0.5020528435  1.0000
