data_image0
_chemical_formula_structural       C54PtH12
_chemical_formula_sum              "C54 Pt1 H12"
_cell_length_a       12.3227
_cell_length_b       20.0
_cell_length_c       12.322560100141528
_cell_angle_alpha    90.0
_cell_angle_beta     120.00139567343798
_cell_angle_gamma    90.0

_space_group_name_H-M_alt    "P 1"
_space_group_IT_number       1

loop_
  _space_group_symop_operation_xyz
  'x, y, z'

loop_
  _atom_site_type_symbol
  _atom_site_label
  _atom_site_symmetry_multiplicity
  _atom_site_fract_x
  _atom_site_fract_y
  _atom_site_fract_z
  _atom_site_occupancy
  C   C1        1.0  0.03130695113375869  0.49473572968399177  0.031106769413065245  1.0000
  C   C2        1.0  0.16528358863023662  0.4943944066301533  0.10001124851823334  1.0000
  C   C3        1.0  0.23387741683871177  0.4938822672193641  0.035815693176988725  1.0000
  C   C4        1.0  0.3678522604070498  0.4963989337758912  0.10452045325448746  1.0000
  C   C5        1.0  0.43309525612146205  0.49378499929946557  0.03582769784986428  1.0000
  C   C6        1.0  0.5658297848750393  0.49492199786569124  0.10011887834470266  1.0000
  C   C7        1.0  0.6308601435114894  0.4946942616958292  0.031175469124666875  1.0000
  C   C8        1.0  0.7636177026699533  0.4939829816046296  0.09541006114609572  1.0000
  C   C9        1.0  0.8288683895916726  0.49651053772522413  0.026733435046106417  1.0000
  C   C10       1.0  0.9628083598277549  0.4937564663906724  0.09539644903421508  1.0000
  C   C11       1.0  0.029156179114704125  0.48940186069324687  0.22895425962656551  1.0000
  C   C12       1.0  0.16190749024492562  0.49061246887639787  0.2969978607459075  1.0000
  C   C13       1.0  0.23109899791122904  0.4956605447549103  0.23350092592400246  1.0000
  C   C14       1.0  0.36457312143123854  0.5032499224583397  0.30366222757931915  1.0000
  C   C15       1.0  0.4344637901475157  0.5029089631986299  0.23806729776897273  1.0000
  C   C16       1.0  0.5698337558563544  0.5042745463041378  0.3038421722803728  1.0000
  C   C17       1.0  0.6333279850847542  0.4972535989982391  0.23370975197373808  1.0000
  C   C18       1.0  0.766190750234735  0.4928030271245696  0.2972786635938788  1.0000
  C   C19       1.0  0.8307496813620036  0.4903570087542529  0.22913190327585004  1.0000
  C   C20       1.0  0.963601219874067  0.48682173423154007  0.29631371827070113  1.0000
  C   C21       1.0  0.030621194712488548  0.4832299295156012  0.4303908081097723  1.0000
  C   C22       1.0  0.16231740864161406  0.4830235725296798  0.4985463183863093  1.0000
  C   C23       1.0  0.22592579002129057  0.4883878451270093  0.4303535902161374  1.0000
  C   C24       1.0  0.35507720902669265  0.4979869845458067  0.4977635046149675  1.0000
  C   C25       1.0  0.4224793809275024  0.5111293497277386  0.43559637548335584  1.0000
  C   C26       1.0  0.6439232676352755  0.5128981628303237  0.43597577783975594  1.0000
  C   C27       1.0  0.7742300404474778  0.5017769117970484  0.498319859917772  1.0000
  C   C28       1.0  0.8357055392931704  0.4917359398405414  0.430733755332708  1.0000
  C   C29       1.0  0.967294032486096  0.4851707471503603  0.49867538247564974  1.0000
  C   C30       1.0  0.03429042971616285  0.4851082349822526  0.6326210557594707  1.0000
  C   C31       1.0  0.16594447924093095  0.4832737785686636  0.7008035728529117  1.0000
  C   C32       1.0  0.22936884524528442  0.48311816478127745  0.6325213730563977  1.0000
  C   C33       1.0  0.361207598182366  0.48852077156789275  0.7005652649648504  1.0000
  C   C34       1.0  0.4227744163918775  0.49776559998784076  0.6328843737043433  1.0000
  C   C35       1.0  0.5526518875719513  0.5104119727241248  0.695089451452772  1.0000
  C   C36       1.0  0.774176750222814  0.5142247263372604  0.6958755751978516  1.0000
  C   C37       1.0  0.8419130682087526  0.5021830940086689  0.6334903901984675  1.0000
  C   C38       1.0  0.9708199757623905  0.4916921464674337  0.7007474344008956  1.0000
  C   C39       1.0  0.03479837898282491  0.49282782713234585  0.8341387880015828  1.0000
  C   C40       1.0  0.16748566200645615  0.49036591114893613  0.90218606633667  1.0000
  C   C41       1.0  0.233038850316337  0.4868720278059496  0.8348892749456258  1.0000
  C   C42       1.0  0.36598805317183036  0.4894878904225743  0.9021534597114087  1.0000
  C   C43       1.0  0.43059805917807187  0.4907939608352414  0.8340092787521616  1.0000
  C   C44       1.0  0.5634006134812035  0.4958906251739017  0.89756349256522  1.0000
  C   C45       1.0  0.6268950416526652  0.503033222746794  0.8274441792474432  1.0000
  C   C46       1.0  0.7622125552738027  0.5031508697319526  0.8931836014849722  1.0000
  C   C47       1.0  0.8320960238129149  0.5050370032071901  0.8275979786516551  1.0000
  C   C48       1.0  0.9655678496213951  0.49737088749374064  0.8976689419998192  1.0000
  C   C49       1.0  0.5865611281244278  0.6952082424362314  0.5357176322984291  1.0000
  C   C50       1.0  0.7241456706796383  0.7159365200510697  0.6083463957769496  1.0000
  C   C51       1.0  0.735742341259506  0.7911341113350072  0.635212849539088  1.0000
  C   C52       1.0  0.6658436378997258  0.8116767945646709  0.7036779234867925  1.0000
  C   C53       1.0  0.5289579013883717  0.7884918470196056  0.6340397221154712  1.0000
  C   C54       1.0  0.5190761708488628  0.713321551642152  0.6071861957091872  1.0000
  Pt  Pt1       1.0  0.5977802573322163  0.5311028884051553  0.5657694432979082  1.0000
  H   H1        1.0  0.4831161906478314  0.8012556752378217  0.6883019454824416  1.0000
  H   H2        1.0  0.5396721866908658  0.7192744914321096  0.4428182363923112  1.0000
  H   H3        1.0  0.7720760582682906  0.7020193089070417  0.5566404429234638  1.0000
  H   H4        1.0  0.771112361090532  0.6880884617907876  0.6975135309094417  1.0000
  H   H5        1.0  0.8348399428093763  0.8057924181020728  0.6902478523125027  1.0000
  H   H6        1.0  0.6962156993285269  0.8184115303614764  0.5456333186605208  1.0000
  H   H7        1.0  0.6705298920485633  0.8661985606598652  0.7168377018403387  1.0000
  H   H8        1.0  0.7134215007004385  0.7894020191887205  0.7981680812291857  1.0000
  H   H9        1.0  0.47773417538200474  0.8156392510515261  0.5444166826417244  1.0000
  H   H10       1.0  0.4204992944315692  0.697465786965386  0.5547002191163194  1.0000
  H   H11       1.0  0.5624782572370386  0.6854769928141854  0.6963964860239404  1.0000
  H   H12       1.0  0.5793146306409585  0.6405208283657124  0.517321379509649  1.0000
