data_image0
_chemical_formula_structural       C54PtH12
_chemical_formula_sum              "C54 Pt1 H12"
_cell_length_a       12.3227
_cell_length_b       20.0
_cell_length_c       12.322560100141528
_cell_angle_alpha    90.0
_cell_angle_beta     120.00139567343798
_cell_angle_gamma    90.0

_space_group_name_H-M_alt    "P 1"
_space_group_IT_number       1

loop_
  _space_group_symop_operation_xyz
  'x, y, z'

loop_
  _atom_site_type_symbol
  _atom_site_label
  _atom_site_symmetry_multiplicity
  _atom_site_fract_x
  _atom_site_fract_y
  _atom_site_fract_z
  _atom_site_occupancy
  C   C1        1.0  0.032123775024250546  0.49831809796714943  0.03063997688079155  1.0000
  C   C2        1.0  0.1662429514150983  0.49686846755169933  0.09951368490220676  1.0000
  C   C3        1.0  0.23394122491410124  0.49640514943006897  0.03418062971523773  1.0000
  C   C4        1.0  0.3677910636763334  0.49888751747080956  0.10246011403128179  1.0000
  C   C5        1.0  0.4328471688488588  0.49401811533652484  0.033972433070747474  1.0000
  C   C6        1.0  0.5659525065758692  0.49392484560783906  0.09844400109940347  1.0000
  C   C7        1.0  0.6315402974330528  0.49163022010224533  0.030537706091338053  1.0000
  C   C8        1.0  0.7646443551847337  0.49307308958666723  0.09511804088941558  1.0000
  C   C9        1.0  0.8300381055290147  0.49719870391875837  0.026616837599858993  1.0000
  C   C10       1.0  0.9642364453884616  0.4956234047167891  0.09556455914602717  1.0000
  C   C11       1.0  0.03068223225006494  0.4897753409897382  0.22877653482028443  1.0000
  C   C12       1.0  0.16425652779802277  0.48926485419524823  0.2971192257176765  1.0000
  C   C13       1.0  0.23350423759383193  0.4951936381913542  0.23348147673215125  1.0000
  C   C14       1.0  0.3684846132567714  0.5013725879907617  0.30422879042611134  1.0000
  C   C15       1.0  0.435176539718966  0.5069999562058292  0.23565221507865727  1.0000
  C   C16       1.0  0.5691708107750187  0.5135165919396738  0.2981623511701952  1.0000
  C   C17       1.0  0.6337609619099621  0.5002758600773082  0.23130343891032207  1.0000
  C   C18       1.0  0.7668118736439488  0.4962795555170331  0.296348392234828  1.0000
  C   C19       1.0  0.8318604111154566  0.4914125417838615  0.2286318895131353  1.0000
  C   C20       1.0  0.9648543811227702  0.48773403923172626  0.29603235553917184  1.0000
  C   C21       1.0  0.031081457700501233  0.48423642928195093  0.4300741739545182  1.0000
  C   C22       1.0  0.16318598061332973  0.481606083013232  0.4980265272134451  1.0000
  C   C23       1.0  0.22809526434261826  0.4850109942601396  0.43036870617696804  1.0000
  C   C24       1.0  0.35949456465835483  0.48914376503516555  0.49777125321961674  1.0000
  C   C25       1.0  0.42917725917505006  0.4992641245283418  0.4373474669628715  1.0000
  C   C26       1.0  0.6452765222092484  0.5321323317175296  0.4266803853709081  1.0000
  C   C27       1.0  0.7744504923287588  0.5166299377880077  0.4960421491357849  1.0000
  C   C28       1.0  0.8354180395037392  0.4981773469515231  0.42991568242815215  1.0000
  C   C29       1.0  0.9666419119528912  0.4889616183283467  0.4978585633909976  1.0000
  C   C30       1.0  0.033445434031136714  0.4905274821211636  0.6318250205523998  1.0000
  C   C31       1.0  0.1652551080581684  0.4846071802554175  0.6998242610364996  1.0000
  C   C32       1.0  0.229539437852171  0.4804001334152401  0.6322989542645407  1.0000
  C   C33       1.0  0.36181175000823607  0.48197276087218094  0.7005569185391628  1.0000
  C   C34       1.0  0.4255509452090028  0.48866242565740575  0.6336862088341525  1.0000
  C   C35       1.0  0.5531164430166019  0.5029654255948287  0.696734287469324  1.0000
  C   C36       1.0  0.7745860179267576  0.5236064224395353  0.6960897759149655  1.0000
  C   C37       1.0  0.8403924334361238  0.515542945083633  0.6313715594417996  1.0000
  C   C38       1.0  0.9699411814734702  0.5011642417544181  0.6990508232136294  1.0000
  C   C39       1.0  0.03410798079161853  0.4996639392823792  0.8324052069968206  1.0000
  C   C40       1.0  0.1670957654776734  0.49401843910686555  0.9007063667331263  1.0000
  C   C41       1.0  0.23256689776874184  0.4881831575698925  0.8337033719607327  1.0000
  C   C42       1.0  0.3655430310197747  0.4879404662644426  0.9011962713873467  1.0000
  C   C43       1.0  0.4309752991693032  0.4854892849345454  0.8335330687629268  1.0000
  C   C44       1.0  0.5638930475780515  0.4903320119375554  0.8973141748396778  1.0000
  C   C45       1.0  0.6277729078485252  0.49909626760826137  0.8277127169556028  1.0000
  C   C46       1.0  0.7629481883396884  0.504153552785059  0.8933407682068141  1.0000
  C   C47       1.0  0.8313297115730287  0.5105968530820277  0.8271714497010687  1.0000
  C   C48       1.0  0.9654859571151573  0.5032361515625782  0.8967354763545728  1.0000
  C   C49       1.0  0.6331494268915525  0.641104424747242  0.6484099015087623  1.0000
  C   C50       1.0  0.7647150520928874  0.6696970534005301  0.718247503326413  1.0000
  C   C51       1.0  0.7599131214373565  0.7458290144718381  0.7339652880216596  1.0000
  C   C52       1.0  0.6849013876841434  0.7633764673467506  0.7980733308374841  1.0000
  C   C53       1.0  0.5534011321741005  0.7334547467628117  0.7269487454279093  1.0000
  C   C54       1.0  0.5587453563243783  0.6571740770665658  0.7128877375266033  1.0000
  Pt  Pt1       1.0  0.5947567324599565  0.5403476617611512  0.5731612740381951  1.0000
  H   H1        1.0  0.5002825537919516  0.7444277900365369  0.7746482055936291  1.0000
  H   H2        1.0  0.5840449395650711  0.6634495260632636  0.5535721558227004  1.0000
  H   H3        1.0  0.8163124892974949  0.6584962319008052  0.6691787307248278  1.0000
  H   H4        1.0  0.817378383017016  0.6466658759050263  0.8113980890619453  1.0000
  H   H5        1.0  0.8559254864703355  0.7654615374620344  0.7873872686446163  1.0000
  H   H6        1.0  0.7165004603581905  0.7699794551327918  0.6412792534773115  1.0000
  H   H7        1.0  0.6797901404563379  0.8178806263817769  0.8058894980911231  1.0000
  H   H8        1.0  0.7337090555367398  0.7436656466513165  0.8944161159314887  1.0000
  H   H9        1.0  0.5012626461693929  0.7565110974411242  0.6334509349018833  1.0000
  H   H10       1.0  0.46315353428774003  0.6370622335875604  0.6599805655087515  1.0000
  H   H11       1.0  0.6033115902259298  0.6342018402306874  0.8062189554302274  1.0000
  H   H12       1.0  0.6172318966080634  0.5822905951221419  0.45139226295922513  1.0000
