data_image0
_chemical_formula_structural       C54PtH12
_chemical_formula_sum              "C54 Pt1 H12"
_cell_length_a       12.3227
_cell_length_b       20.0
_cell_length_c       12.322560100141528
_cell_angle_alpha    90.0
_cell_angle_beta     120.00139567343798
_cell_angle_gamma    90.0

_space_group_name_H-M_alt    "P 1"
_space_group_IT_number       1

loop_
  _space_group_symop_operation_xyz
  'x, y, z'

loop_
  _atom_site_type_symbol
  _atom_site_label
  _atom_site_symmetry_multiplicity
  _atom_site_fract_x
  _atom_site_fract_y
  _atom_site_fract_z
  _atom_site_occupancy
  C   C1        1.0  0.031226452159492445  0.49498462957839584  0.030902585140950973  1.0000
  C   C2        1.0  0.16515550842152543  0.4942270081938892  0.09976237084731335  1.0000
  C   C3        1.0  0.23378588249291818  0.4938298542070131  0.035610260688289076  1.0000
  C   C4        1.0  0.3677545138654942  0.4959662625280459  0.10427983174588588  1.0000
  C   C5        1.0  0.4330159243471648  0.4934596326772622  0.0356192950526139  1.0000
  C   C6        1.0  0.5657367089419091  0.4946622960702273  0.0998881905323878  1.0000
  C   C7        1.0  0.6307655317053408  0.49436654992555007  0.030977378641632396  1.0000
  C   C8        1.0  0.7635281469472759  0.49394292757990005  0.09518933384860319  1.0000
  C   C9        1.0  0.8287915820418095  0.49649879678404824  0.026545491558447  1.0000
  C   C10       1.0  0.9627323681806489  0.4938785683274106  0.09519381061761252  1.0000
  C   C11       1.0  0.029024131794779636  0.48933154224186115  0.2287060141079196  1.0000
  C   C12       1.0  0.1617462239725436  0.48988938604931803  0.2967382911351586  1.0000
  C   C13       1.0  0.2309363350383026  0.49475823684205944  0.2332152030530368  1.0000
  C   C14       1.0  0.36447096271807844  0.5016517628111229  0.3034002068420719  1.0000
  C   C15       1.0  0.4343834316806575  0.5019444626557611  0.2378726846889361  1.0000
  C   C16       1.0  0.5697167457546273  0.5037202543450006  0.3035618904983055  1.0000
  C   C17       1.0  0.6332476017509758  0.4972275730630183  0.2334320356359195  1.0000
  C   C18       1.0  0.7661460092172597  0.49329586145765403  0.29705544951091106  1.0000
  C   C19       1.0  0.8306771434224046  0.49068323877600983  0.2289171296889659  1.0000
  C   C20       1.0  0.963492878156439  0.4871022051406578  0.2961024545628476  1.0000
  C   C21       1.0  0.030477493485343933  0.4836890581367502  0.4301790309738885  1.0000
  C   C22       1.0  0.16208400464554792  0.48276371680498226  0.4983469443426312  1.0000
  C   C23       1.0  0.22568934135540386  0.48726398437250523  0.4300710930940309  1.0000
  C   C24       1.0  0.35498736389428914  0.4957221255078166  0.49754682748952667  1.0000
  C   C25       1.0  0.4225023411052995  0.5084797150913305  0.4354077072153532  1.0000
  C   C26       1.0  0.6436406783643096  0.5123204367217172  0.43563912748776046  1.0000
  C   C27       1.0  0.7742679281683995  0.5025183872288598  0.4980890772559931  1.0000
  C   C28       1.0  0.8357398481483929  0.49277020739042554  0.4305019811480433  1.0000
  C   C29       1.0  0.9672814053803336  0.4862526211518365  0.4984923385605655  1.0000
  C   C30       1.0  0.03425486210662086  0.4862976761448651  0.6324147082894307  1.0000
  C   C31       1.0  0.16580202435149144  0.48380771348260343  0.7005997882328103  1.0000
  C   C32       1.0  0.2291414676421192  0.48288426797739475  0.6323156698076363  1.0000
  C   C33       1.0  0.36103450084509364  0.4874842654871467  0.7004220991554881  1.0000
  C   C34       1.0  0.4226998471260172  0.49556912544667076  0.6326686705151163  1.0000
  C   C35       1.0  0.552613466001854  0.507893683886266  0.6948085310336053  1.0000
  C   C36       1.0  0.7739906443975669  0.5140355154318281  0.6957289149836824  1.0000
  C   C37       1.0  0.841956013308744  0.5031409537646473  0.6332844555150826  1.0000
  C   C38       1.0  0.9709102718406339  0.49305441569052433  0.700565561637815  1.0000
  C   C39       1.0  0.03477430632226027  0.4938262945191503  0.8339462150796205  1.0000
  C   C40       1.0  0.16740999937458378  0.490901686642512  0.9019634772982243  1.0000
  C   C41       1.0  0.23292301217334774  0.4871808560854618  0.8346873403347688  1.0000
  C   C42       1.0  0.365884219038039  0.48923499996691905  0.9019682168600415  1.0000
  C   C43       1.0  0.4305030490511281  0.49005819519216653  0.8338459512382315  1.0000
  C   C44       1.0  0.5633081586694393  0.49506187173370036  0.8974010408396291  1.0000
  C   C45       1.0  0.626825224598106  0.5017296995823918  0.8272673105336672  1.0000
  C   C46       1.0  0.7620974284431303  0.5027086469830303  0.8929518533531564  1.0000
  C   C47       1.0  0.8320412458234023  0.5051112860767648  0.8274394539885457  1.0000
  C   C48       1.0  0.9655667322692337  0.49799151231147276  0.8975190535542346  1.0000
  C   C49       1.0  0.5948474349645588  0.689109005585666  0.5509059361927753  1.0000
  C   C50       1.0  0.732247912116039  0.7094803365887734  0.6263756029456469  1.0000
  C   C51       1.0  0.7422720747440348  0.7842217413454785  0.6561009975776522  1.0000
  C   C52       1.0  0.6704300524675814  0.8025201902713429  0.72368193042223  1.0000
  C   C53       1.0  0.5341660645385786  0.7783236917817027  0.6524106328857158  1.0000
  C   C54       1.0  0.5264818786702731  0.7036444891531096  0.6227162366033472  1.0000
  Pt  Pt1       1.0  0.5971745044139422  0.5288607877541056  0.5654375273289473  1.0000
  H   H1        1.0  0.487321114846672  0.78937315153115  0.7063492117681845  1.0000
  H   H2        1.0  0.5485569203266231  0.7155268482284548  0.4604617185084439  1.0000
  H   H3        1.0  0.7817078798023482  0.6969340033157551  0.5755877241070196  1.0000
  H   H4        1.0  0.7779174953425134  0.6804516451867398  0.7142084061567183  1.0000
  H   H5        1.0  0.840924317425002  0.7993940918887765  0.7125276598990437  1.0000
  H   H6        1.0  0.7029264934757211  0.812305322706735  0.5674057951037498  1.0000
  H   H7        1.0  0.673307181239579  0.8568696992301214  0.738013596534797  1.0000
  H   H8        1.0  0.7178814890688171  0.779608228842076  0.8176126864830521  1.0000
  H   H9        1.0  0.4827537919313333  0.8060945321783237  0.5635399822852647  1.0000
  H   H10       1.0  0.428459634312241  0.6869645045572905  0.5693345614134219  1.0000
  H   H11       1.0  0.5706247786434978  0.6746809681792474  0.7106484758600008  1.0000
  H   H12       1.0  0.5877564605446636  0.6352105469893469  0.5267833985736994  1.0000
