data_image0
_chemical_formula_structural       H6CO194Al2Si94PdAu
_chemical_formula_sum              "H6 C1 O194 Al2 Si94 Pd1 Au1"
_cell_length_a       20.531028632838
_cell_length_b       20.30339864799589
_cell_length_c       13.629729092395806
_cell_angle_alpha    90.0
_cell_angle_beta     90.0
_cell_angle_gamma    90.0

_space_group_name_H-M_alt    "P 1"
_space_group_IT_number       1

loop_
  _space_group_symop_operation_xyz
  'x, y, z'

loop_
  _atom_site_type_symbol
  _atom_site_label
  _atom_site_symmetry_multiplicity
  _atom_site_fract_x
  _atom_site_fract_y
  _atom_site_fract_z
  _atom_site_occupancy
  H   H1        1.0  0.697746496358461  0.4791295612972391  0.3114018031658453  1.0000
  H   H2        1.0  0.4330507973358733  0.46438124758653276  0.3681705137366644  1.0000
  H   H3        1.0  0.6391906323757186  0.45277385436720413  0.4159693281327909  1.0000
  H   H4        1.0  0.6682223524008875  0.5386644891103205  0.4037799913543309  1.0000
  H   H5        1.0  0.7299732290506321  0.476730849564164  0.4378927561002622  1.0000
  H   H6        1.0  0.6160255870805494  0.3782644981019066  0.46598783887207923  1.0000
  C   C1        1.0  0.6905546238592325  0.4909310703527434  0.3886716915374738  1.0000
  O   O1        1.0  0.5622443175358856  0.33232709944495353  0.04314966513725959  1.0000
  O   O2        1.0  0.5462109834207837  0.7487315855977293  0.045015499131057686  1.0000
  O   O3        1.0  0.5523774337834987  0.1387818001869875  0.05092058825360785  1.0000
  O   O4        1.0  0.5572348030425005  0.5338148769351466  0.05758851982786433  1.0000
  O   O5        1.0  0.07152962501299678  0.2303901085708571  0.07360124521636607  1.0000
  O   O6        1.0  0.057424965337171924  0.03294967882871054  0.07576073792912824  1.0000
  O   O7        1.0  0.05756884482647747  0.8242583528498398  0.07692196636199128  1.0000
  O   O8        1.0  0.6417843658702127  0.433838283124512  0.09010334792451938  1.0000
  O   O9        1.0  0.6549987518133776  0.8197238048142879  0.07092375318017255  1.0000
  O   O10       1.0  0.47781362017636797  0.42982884934405785  0.0881666656741057  1.0000
  O   O11       1.0  0.8382738550134708  0.8496446240673454  0.09058454269594081  1.0000
  O   O12       1.0  0.44224177455611036  0.6733734480620275  0.07735951446669787  1.0000
  O   O13       1.0  0.8432298135523665  0.009257364905902076  0.09132464850713914  1.0000
  O   O14       1.0  0.06635015644800668  0.6328347175072969  0.09094276714396747  1.0000
  O   O15       1.0  0.43359320623560665  0.8056709234302084  0.09283003863929422  1.0000
  O   O16       1.0  0.8343560994774312  0.6096014649289299  0.09673106583172954  1.0000
  O   O17       1.0  0.8540038876042918  0.2523877619318843  0.0967148210759551  1.0000
  O   O18       1.0  0.6575432380532402  0.6882822716516742  0.08894078285415893  1.0000
  O   O19       1.0  0.669366210438592  0.1844570598398333  0.09746587056996095  1.0000
  O   O20       1.0  0.6452151817478565  0.053337333594749334  0.1051536768506332  1.0000
  O   O21       1.0  0.6799049711797249  0.5588853901113712  0.10464881373733219  1.0000
  O   O22       1.0  0.468622845187368  0.047560250545552095  0.11941664774775626  1.0000
  O   O23       1.0  0.44259994037859224  0.17564997577028763  0.14167783026658373  1.0000
  O   O24       1.0  0.44173450435594036  0.5490781578813531  0.14055930489436394  1.0000
  O   O25       1.0  0.6714648932726969  0.3132036782650391  0.1460878822106631  1.0000
  O   O26       1.0  0.45124940478706765  0.3088251617553619  0.14398402923315587  1.0000
  O   O27       1.0  0.6844902445822362  0.9335338144792725  0.15469014765516456  1.0000
  O   O28       1.0  0.8338965823390875  0.13090762311018045  0.1591893230703611  1.0000
  O   O29       1.0  0.44274201528159235  0.9249874125540877  0.16804994540524407  1.0000
  O   O30       1.0  0.8335355601855085  0.7307476396712226  0.1744283857385062  1.0000
  O   O31       1.0  0.06759184770562932  0.13061878668169075  0.20738286114318  1.0000
  O   O32       1.0  0.06106158130412768  0.7334275782446441  0.2219600925524046  1.0000
  O   O33       1.0  0.743025325255964  0.8224316491114685  0.2183993607902573  1.0000
  O   O34       1.0  0.7402218058755748  0.6424976819555732  0.22432887551147843  1.0000
  O   O35       1.0  0.7563506559150239  0.22965647162193725  0.22542805743078428  1.0000
  O   O36       1.0  0.7500238883070137  0.038558418854579064  0.2229720679842673  1.0000
  O   O37       1.0  0.35961481377596916  0.6348752682416502  0.2189936112038476  1.0000
  O   O38       1.0  0.13244947234413937  0.017247639658384776  0.22958048763180058  1.0000
  O   O39       1.0  0.12353763251983828  0.8484320470745161  0.23905328700837225  1.0000
  O   O40       1.0  0.9986106071685688  0.2400347937551906  0.23419269269524992  1.0000
  O   O41       1.0  0.12970975061166157  0.24365574488318917  0.24517745425605003  1.0000
  O   O42       1.0  0.3602227795518909  0.8378699339793835  0.2469385968102887  1.0000
  O   O43       1.0  0.9916389507457622  0.8438655903757704  0.2418122838661348  1.0000
  O   O44       1.0  0.0019511685474788126  0.021406874472654287  0.25260971992286635  1.0000
  O   O45       1.0  0.9873276826411209  0.6255032974455661  0.24537990222427503  1.0000
  O   O46       1.0  0.613415469794706  0.6199758451020322  0.24729499039257027  1.0000
  O   O47       1.0  0.4852899754023257  0.6465352063367527  0.2603631999387062  1.0000
  O   O48       1.0  0.37348282187238047  0.24656629296571578  0.2677862894403334  1.0000
  O   O49       1.0  0.11717049747221456  0.6197473602461361  0.27049375480744475  1.0000
  O   O50       1.0  0.37475911689837904  0.021619335915861078  0.2536244042428376  1.0000
  O   O51       1.0  0.48819187265015446  0.8205732450234087  0.27106530473028945  1.0000
  O   O52       1.0  0.6174908311006827  0.8429750869360143  0.25618883758585964  1.0000
  O   O53       1.0  0.864560908780449  0.8369731449912162  0.28252591638082264  1.0000
  O   O54       1.0  0.8732565927947348  0.03430578230569737  0.2802713019495511  1.0000
  O   O55       1.0  0.6333994211968637  0.2253152760781187  0.2801194034194772  1.0000
  O   O56       1.0  0.8598598435729203  0.6255565863143783  0.28853457632046203  1.0000
  O   O57       1.0  0.8754249563643387  0.22225441768838755  0.2878635288664791  1.0000
  O   O58       1.0  0.5032086657097393  0.23926695249326987  0.2896241710085693  1.0000
  O   O59       1.0  0.5007613940063237  0.0019710057396606796  0.29947283065971825  1.0000
  O   O60       1.0  0.6321123773982572  0.012680639520863351  0.29215894851294005  1.0000
  O   O61       1.0  0.25045004339919835  0.041472182031073807  0.3007604133320346  1.0000
  O   O62       1.0  0.244593288831567  0.6351294300968323  0.3025053147302473  1.0000
  O   O63       1.0  0.24911985198191994  0.22086466157661028  0.3092155742589468  1.0000
  O   O64       1.0  0.24030404861753726  0.8172948462296559  0.3120652627792924  1.0000
  O   O65       1.0  0.5568597797918805  0.1203567380913843  0.3037242954468831  1.0000
  O   O66       1.0  0.5728801689001818  0.7309602975762639  0.33532107191119953  1.0000
  O   O67       1.0  0.34195212536948455  0.1305384836713823  0.3510755026501874  1.0000
  O   O68       1.0  0.33327177213817455  0.7290444402203647  0.35278160196316666  1.0000
  O   O69       1.0  0.18534199500218668  0.9327020302636266  0.3586090272213189  1.0000
  O   O70       1.0  0.9377549886318098  0.9330337477120342  0.36136491492767225  1.0000
  O   O71       1.0  0.9480702253814294  0.3116489551664653  0.37976305302694174  1.0000
  O   O72       1.0  0.9379737491185072  0.5479905897201383  0.38846389443923285  1.0000
  O   O73       1.0  0.1753555898754218  0.3107279349203157  0.40068938899926965  1.0000
  O   O74       1.0  0.43003835233719834  0.425477923413801  0.41035451418621754  1.0000
  O   O75       1.0  0.9709753641061736  0.18322836816145924  0.4077647419776963  1.0000
  O   O76       1.0  0.17578340749850174  0.5588696179391064  0.4222829675803653  1.0000
  O   O77       1.0  0.9438602302957633  0.6791446944345619  0.41349928894340854  1.0000
  O   O78       1.0  0.14546467533851334  0.18277281484295843  0.4176073469040701  1.0000
  O   O79       1.0  0.35143172451360133  0.6056817045731072  0.410321495293362  1.0000
  O   O80       1.0  0.16082219577771295  0.6910645725663569  0.4248474398706902  1.0000
  O   O81       1.0  0.5533511485956318  0.6124834070124364  0.41907569731410943  1.0000
  O   O82       1.0  0.14473264132253474  0.04976622968076897  0.41846113806069835  1.0000
  O   O83       1.0  0.9512031272271297  0.8109873271952911  0.42509541314576826  1.0000
  O   O84       1.0  0.9539661560058487  0.05326238244779738  0.4316934744972537  1.0000
  O   O85       1.0  0.1351972570071967  0.8212983862317949  0.43051345838781535  1.0000
  O   O86       1.0  0.5616284667878368  0.8465134070515422  0.42919071997091596  1.0000
  O   O87       1.0  0.33578634989967404  0.8466237872037784  0.4397485173560646  1.0000
  O   O88       1.0  0.5955954899406385  0.418352040137856  0.4396107388833795  1.0000
  O   O89       1.0  0.13999793282124082  0.4330979912466895  0.4472497843281318  1.0000
  O   O90       1.0  0.3319859302959169  0.24148846240287722  0.45491396497619435  1.0000
  O   O91       1.0  0.33545229311244407  0.01360961430605483  0.4422029451790867  1.0000
  O   O92       1.0  0.5726019799281816  0.20963873964972624  0.449776776226842  1.0000
  O   O93       1.0  0.972995233215381  0.42938585376726085  0.45131681515505323  1.0000
  O   O94       1.0  0.5681286009023604  0.03756488354985007  0.45807366639590646  1.0000
  O   O95       1.0  0.05391370824911852  0.5330329349221008  0.4726818109049975  1.0000
  O   O96       1.0  0.05830812020473159  0.3306667010310522  0.48257702698431626  1.0000
  O   O97       1.0  0.04736804778774974  0.7341332452400352  0.4962658853755499  1.0000
  O   O98       1.0  0.05460505490099725  0.11660433646599315  0.5182890949213501  1.0000
  O   O99       1.0  0.4562862325215373  0.247838206750506  0.5141493765945157  1.0000
  O   O100      1.0  0.45107726805281395  0.831233282327539  0.530043513041057  1.0000
  O   O101      1.0  0.4483101271480214  0.03210265184650205  0.5353623641297521  1.0000
  O   O102      1.0  0.4486519874532296  0.6168671330061865  0.5397975065445818  1.0000
  O   O103      1.0  0.5318141916946197  0.9333185637030798  0.5690350059864995  1.0000
  O   O104      1.0  0.9428029003558007  0.32845200824593473  0.5727920003432255  1.0000
  O   O105      1.0  0.9450009023151138  0.5231325774588967  0.5810564093855684  1.0000
  O   O106      1.0  0.3692809879768122  0.9291817402138026  0.5833073889680391  1.0000
  O   O107      1.0  0.34484796614892704  0.54091678474929  0.5790073920049014  1.0000
  O   O108      1.0  0.1785244743140581  0.11508690874327886  0.5782574318205287  1.0000
  O   O109      1.0  0.1662720575978937  0.34708535876278274  0.5897194350675263  1.0000
  O   O110      1.0  0.9339728968665323  0.135184566269906  0.5832518992651732  1.0000
  O   O111      1.0  0.9315665406830848  0.7382645484650525  0.5860406956543284  1.0000
  O   O112      1.0  0.5539280666511242  0.6884427180017494  0.5785263336573906  1.0000
  O   O113      1.0  0.3342555489632742  0.6741426061588255  0.577857489448424  1.0000
  O   O114      1.0  0.5669625692824616  0.3019636763997067  0.5888942097609676  1.0000
  O   O115      1.0  0.1581850164978433  0.7562823933884818  0.595055645652098  1.0000
  O   O116      1.0  0.5577439114872845  0.5565535417073129  0.5945495343968278  1.0000
  O   O117      1.0  0.1490450869856744  0.5101139853538874  0.6036796556916771  1.0000
  O   O118      1.0  0.36247115300169686  0.3143676979350413  0.6063382855665773  1.0000
  O   O119      1.0  0.367868415845399  0.1820180948379006  0.6230555997644669  1.0000
  O   O120      1.0  0.3411740126738088  0.8028938254339986  0.6258528367666443  1.0000
  O   O121      1.0  0.5669180866641866  0.8143944251087535  0.6206228320154205  1.0000
  O   O122      1.0  0.5315164934915128  0.1768840288693825  0.630745357594995  1.0000
  O   O123      1.0  0.3364242849947566  0.05297787480697381  0.6306907754668118  1.0000
  O   O124      1.0  0.5580389923923922  0.43110058539744955  0.6447570067588622  1.0000
  O   O125      1.0  0.5535913892149483  0.04801004701614137  0.65207316174408  1.0000
  O   O126      1.0  0.16330199397884348  0.633501499262189  0.6624934320409647  1.0000
  O   O127      1.0  0.3264681192745828  0.4268172922752996  0.6723344765693998  1.0000
  O   O128      1.0  0.16520041356178747  0.2284105838639986  0.6760332664606032  1.0000
  O   O129      1.0  0.9419870341013998  0.6283776381288457  0.6986627853028226  1.0000
  O   O130      1.0  0.9494435825299801  0.2350028087304016  0.7139693303030018  1.0000
  O   O131      1.0  0.25565382213151894  0.7229856495525208  0.7155288281439616  1.0000
  O   O132      1.0  0.2558709043792315  0.3177459000277535  0.7238655283745389  1.0000
  O   O133      1.0  0.24549989646073525  0.5396527444316033  0.7311819054011409  1.0000
  O   O134      1.0  0.2612900481356978  0.14227460653113824  0.7217021135565359  1.0000
  O   O135      1.0  0.6369823349758263  0.7253405847895683  0.7187981474963129  1.0000
  O   O136      1.0  0.8681330124529455  0.5218649030317815  0.7351979096925839  1.0000
  O   O137      1.0  0.6398603179859925  0.5172742676239387  0.7333062157836633  1.0000
  O   O138      1.0  0.8784241080364092  0.34544339350283687  0.7368292165805794  1.0000
  O   O139      1.0  0.00972854009813966  0.350083812813404  0.7375986669748928  1.0000
  O   O140      1.0  0.6318361362104067  0.13348854103348204  0.7414291025979302  1.0000
  O   O141      1.0  0.0078497630239572  0.11923370786339238  0.7421821502464248  1.0000
  O   O142      1.0  0.009302206419292644  0.7361338544223855  0.7416439415056927  1.0000
  O   O143      1.0  0.5087017847711633  0.7361436281092824  0.7513474690681472  1.0000
  O   O144      1.0  0.8780525060010247  0.1290986338480129  0.7597156172277825  1.0000
  O   O145      1.0  0.8780221879450839  0.7345861356061271  0.7622997118967016  1.0000
  O   O146      1.0  0.9964320570159764  0.5166575968664162  0.7616615117688631  1.0000
  O   O147      1.0  0.6385987927329978  0.3467529496695792  0.7655003157440291  1.0000
  O   O148      1.0  0.38111029861971135  0.7103422177412562  0.7546850903852982  1.0000
  O   O149      1.0  0.5124575243278592  0.5184475104424116  0.775462741438804  1.0000
  O   O150      1.0  0.1377983974340596  0.11395620656673688  0.7658884661411647  1.0000
  O   O151      1.0  0.1351876954319898  0.33613248767515136  0.7813442885510391  1.0000
  O   O152      1.0  0.4987431978219901  0.332998631766103  0.7689590022993449  1.0000
  O   O153      1.0  0.13657613791282333  0.7333163658786881  0.7867367357445572  1.0000
  O   O154      1.0  0.12251439987803074  0.5419831347049693  0.7901483595553689  1.0000
  O   O155      1.0  0.37889578608447305  0.11665508080990623  0.7914512133355592  1.0000
  O   O156      1.0  0.382322537882503  0.5368248881109208  0.7826991597063467  1.0000
  O   O157      1.0  0.5097177223469086  0.11927899639306294  0.8039329778096271  1.0000
  O   O158      1.0  0.3702158992597532  0.3345313505406502  0.803638806915593  1.0000
  O   O159      1.0  0.751329140068782  0.7214895798416024  0.8040742385813331  1.0000
  O   O160      1.0  0.7520917546381677  0.13583227731070804  0.8029903074441936  1.0000
  O   O161      1.0  0.7548154313004966  0.5361226630513038  0.8178543017530456  1.0000
  O   O162      1.0  0.7626392882415776  0.31990146997380775  0.8126205308406427  1.0000
  O   O163      1.0  0.6617951092996738  0.6257319614247294  0.8433334485672662  1.0000
  O   O164      1.0  0.44037587638110304  0.2276451981520129  0.847543863439551  1.0000
  O   O165      1.0  0.46618446775828565  0.6298445123157044  0.8465779497616097  1.0000
  O   O166      1.0  0.669018395118829  0.2334138858669504  0.8580580497655278  1.0000
  O   O167      1.0  0.8271355612054277  0.43013850169887036  0.8659643730186464  1.0000
  O   O168      1.0  0.06636620371289412  0.432198491256174  0.8663762335159736  1.0000
  O   O169      1.0  0.06114324197120896  0.0455309869378222  0.8829153337389813  1.0000
  O   O170      1.0  0.056953029232960174  0.8115599163731139  0.8846100011064596  1.0000
  O   O171      1.0  0.8249703359685074  0.806983639223161  0.904947257029467  1.0000
  O   O172      1.0  0.06573048434473369  0.179042751072658  0.8954372393664563  1.0000
  O   O173      1.0  0.8279502467302451  0.054782080096111976  0.9053092294723507  1.0000
  O   O174      1.0  0.04978661898608115  0.6796710997477884  0.9092125946681273  1.0000
  O   O175      1.0  0.046014055139098654  0.3085970816670229  0.9196093574728613  1.0000
  O   O176      1.0  0.6433499789264717  0.745951244898238  0.9125880007959769  1.0000
  O   O177      1.0  0.8372214058347465  0.18573553643425061  0.929304121120371  1.0000
  O   O178      1.0  0.4436411695845846  0.749790068709735  0.9182068823731703  1.0000
  O   O179      1.0  0.8384892348189075  0.6772771032654891  0.9308772191247473  1.0000
  O   O180      1.0  0.862754599934758  0.5471359096147793  0.9297611612890866  1.0000
  O   O181      1.0  0.6505412311822613  0.5065774374903089  0.927330179993137  1.0000
  O   O182      1.0  0.8704034792532648  0.3144157081541206  0.9275871003882404  1.0000
  O   O183      1.0  0.6559951072347404  0.1137339275364844  0.9340778810257856  1.0000
  O   O184      1.0  0.04168478288154597  0.5495197946067111  0.9421244486767467  1.0000
  O   O185      1.0  0.8621750901108438  0.9301996310916887  0.9398346705927281  1.0000
  O   O186      1.0  0.45007752589866556  0.5176078114517405  0.9468769937603845  1.0000
  O   O187      1.0  0.6789514767166744  0.346142165687951  0.9551231224941877  1.0000
  O   O188      1.0  0.4477128955949344  0.3383682511362019  0.9531994527194259  1.0000
  O   O189      1.0  0.03070546668063308  0.9288014868064172  0.9610082351828342  1.0000
  O   O190      1.0  0.4364479403295719  0.12086678395266974  0.9644057416073022  1.0000
  O   O191      1.0  0.9565196065362128  0.22141191496667137  0.981749398108254  1.0000
  O   O192      1.0  0.9464619763024417  0.030211796389487813  0.9743279615941949  1.0000
  O   O193      1.0  0.9440521477469925  0.829541973366971  0.9798842525732976  1.0000
  O   O194      1.0  0.9487410120307337  0.6312273201779813  0.008837112376520073  1.0000
  Al  Al1       1.0  0.5671652710724303  0.34825378143500346  0.6982139916101106  1.0000
  Al  Al2       1.0  0.3227174463747882  0.5143284734136861  0.700805137099149  1.0000
  Si  Si1       1.0  0.62510564933993  0.7502330347501485  0.029053732093150243  1.0000
  Si  Si2       1.0  0.4667950982561341  0.7444908381208566  0.03298885109912371  1.0000
  Si  Si3       1.0  0.6324908058207676  0.5078805412543408  0.04438328874327284  1.0000
  Si  Si4       1.0  0.6305115106521537  0.12239690202721355  0.04707974067845719  1.0000
  Si  Si5       1.0  0.6384391123936333  0.35587635051595096  0.05690246003021352  1.0000
  Si  Si6       1.0  0.4813715248228717  0.5073715078755574  0.05580218991443721  1.0000
  Si  Si7       1.0  0.4849954235501983  0.3521467067298028  0.05641465547019179  1.0000
  Si  Si8       1.0  0.4754661020926539  0.1205575798251477  0.06916662143426895  1.0000
  Si  Si9       1.0  0.6718574970025618  0.6281050056796207  0.16591841820231906  1.0000
  Si  Si10      1.0  0.4330796646385485  0.6263162168812465  0.17386735862518854  1.0000
  Si  Si11      1.0  0.6752478973910225  0.8547014432073006  0.17545485147672824  1.0000
  Si  Si12      1.0  0.6814950049948062  0.23776736950963545  0.18619333370892352  1.0000
  Si  Si13      1.0  0.8199886177521345  0.8097332206676633  0.1913303885611602  1.0000
  Si  Si14      1.0  0.8251980129038529  0.05310392905470943  0.18863326498935548  1.0000
  Si  Si15      1.0  0.06688280730823619  0.21055362102855898  0.18968508111732685  1.0000
  Si  Si16      1.0  0.829861086174896  0.20877002577288833  0.19151881385655606  1.0000
  Si  Si17      1.0  0.0643511611546996  0.05074021057000647  0.19170090286789956  1.0000
  Si  Si18      1.0  0.8173564161473026  0.6526533117993847  0.1955347472432025  1.0000
  Si  Si19      1.0  0.6779804970570552  0.009683391341349091  0.19339759189083505  1.0000
  Si  Si20      1.0  0.0583705311510807  0.8121823393937707  0.19526605948216263  1.0000
  Si  Si21      1.0  0.4318073113071176  0.8473726072642834  0.19553826222226853  1.0000
  Si  Si22      1.0  0.05799065226673645  0.6531636398915531  0.2066878689757257  1.0000
  Si  Si23      1.0  0.443392094302555  0.24210213397885819  0.2098246481679164  1.0000
  Si  Si24      1.0  0.44628324771895983  0.00031116650496760157  0.2105645893539784  1.0000
  Si  Si25      1.0  0.5561299862631295  0.6534188762148  0.3146287380759597  1.0000
  Si  Si26      1.0  0.559686324871469  0.8103159692722471  0.32217490193672554  1.0000
  Si  Si27      1.0  0.321537360225755  0.6518475197039273  0.3215773564535631  1.0000
  Si  Si28      1.0  0.9364700874466032  0.8556982054225057  0.32742891214398145  1.0000
  Si  Si29      1.0  0.941999121861574  0.01091346458373954  0.3307384432519552  1.0000
  Si  Si30      1.0  0.17872010384539497  0.010219976749596614  0.32701910844133975  1.0000
  Si  Si31      1.0  0.9485201020924409  0.23885546668213448  0.32791205879545765  1.0000
  Si  Si32      1.0  0.5663187371300089  0.19869817089796749  0.331390770791783  1.0000
  Si  Si33      1.0  0.17128267503088365  0.8549464515125563  0.33520963024994543  1.0000
  Si  Si34      1.0  0.5648158655174744  0.04321359975337503  0.33830880073774455  1.0000
  Si  Si35      1.0  0.3175927225069703  0.807641922550068  0.3380235367117458  1.0000
  Si  Si36      1.0  0.9334615481395521  0.6199075793291787  0.3340501528615894  1.0000
  Si  Si37      1.0  0.32450226585440595  0.20939258911539516  0.344568254326148  1.0000
  Si  Si38      1.0  0.325917005894799  0.051848976483786294  0.33719749406135663  1.0000
  Si  Si39      1.0  0.174865302752555  0.23918366613266648  0.34399769038890693  1.0000
  Si  Si40      1.0  0.1733716412619402  0.6264342165112523  0.35548978306856244  1.0000
  Si  Si41      1.0  0.9808642947919077  0.3506018096351534  0.4724557096400427  1.0000
  Si  Si42      1.0  0.9777207637201855  0.5082365875457686  0.4741658063766958  1.0000
  Si  Si43      1.0  0.13450779871898635  0.3554233879250213  0.48003379203514057  1.0000
  Si  Si44      1.0  0.968751770832746  0.7413134670900868  0.4795626173900901  1.0000
  Si  Si45      1.0  0.13067683851018705  0.11643084891352132  0.4820983904400619  1.0000
  Si  Si46      1.0  0.9779500653607492  0.1216713607364094  0.48451215802608205  1.0000
  Si  Si47      1.0  0.12986051259254952  0.509025108332138  0.48723254422472584  1.0000
  Si  Si48      1.0  0.1250712547365759  0.7503045170499548  0.4862382704471361  1.0000
  Si  Si49      1.0  0.36944502340747676  0.609673061967582  0.5278430257268367  1.0000
  Si  Si50      1.0  0.5279483616113743  0.6190400599462363  0.533179588466449  1.0000
  Si  Si51      1.0  0.527378689524191  0.8562142576827132  0.536823029171519  1.0000
  Si  Si52      1.0  0.3741972292858313  0.8524191299080093  0.5448564087892354  1.0000
  Si  Si53      1.0  0.3805977379161753  0.24431083711348126  0.5499911482633512  1.0000
  Si  Si54      1.0  0.5331050862127257  0.23540543863711225  0.5478157770361305  1.0000
  Si  Si55      1.0  0.5253612796747332  0.012668273128021308  0.5531062479785468  1.0000
  Si  Si56      1.0  0.3726173653316017  0.006757975106863226  0.5482915772703277  1.0000
  Si  Si57      1.0  0.32872614939900596  0.7281061690365549  0.6681996744532263  1.0000
  Si  Si58      1.0  0.5661336522493777  0.7405671431925671  0.6687209178681324  1.0000
  Si  Si59      1.0  0.17968334400141944  0.3071059057762829  0.692028016424743  1.0000
  Si  Si60      1.0  0.5662002664195116  0.5073483148098676  0.6893426294130349  1.0000
  Si  Si61      1.0  0.17845658160475114  0.710678315917425  0.6900942301353171  1.0000
  Si  Si62      1.0  0.18546371893785024  0.15019275575759763  0.6863462837541333  1.0000
  Si  Si63      1.0  0.3360773344901392  0.12312437762782219  0.6908329308073828  1.0000
  Si  Si64      1.0  0.945100664888029  0.31421060505046683  0.6907998613985238  1.0000
  Si  Si65      1.0  0.9385294596276884  0.5480357402516458  0.6942883014683454  1.0000
  Si  Si66      1.0  0.17216301570212536  0.5560338043969185  0.6978552081450055  1.0000
  Si  Si67      1.0  0.940128944897443  0.7089493014287568  0.6974352767141556  1.0000
  Si  Si68      1.0  0.942160945965064  0.15491372953605181  0.699615936624047  1.0000
  Si  Si69      1.0  0.3282411116408088  0.3478600037839854  0.7052065320404384  1.0000
  Si  Si70      1.0  0.5567994338555702  0.1200682286633283  0.7067051097088572  1.0000
  Si  Si71      1.0  0.44900793421694024  0.7059164977147975  0.8170658414734637  1.0000
  Si  Si72      1.0  0.06378986039180876  0.35625641221593946  0.8262411815334448  1.0000
  Si  Si73      1.0  0.6741320296180009  0.7043006259506082  0.8204415131181405  1.0000
  Si  Si74      1.0  0.0673136134153717  0.11501503585497733  0.822218916040014  1.0000
  Si  Si75      1.0  0.676837815887227  0.5467820202544338  0.8309709673472431  1.0000
  Si  Si76      1.0  0.6773713905593278  0.1549480440729875  0.8349644573892948  1.0000
  Si  Si77      1.0  0.828281082379471  0.5082523171086232  0.8376010012179649  1.0000
  Si  Si78      1.0  0.06277817279402093  0.7395076406721239  0.831092383173987  1.0000
  Si  Si79      1.0  0.05718308778713317  0.5103535837533627  0.8391466791049172  1.0000
  Si  Si80      1.0  0.45031607262120055  0.5504716922377374  0.8365770109845673  1.0000
  Si  Si81      1.0  0.8336625739060906  0.35223640380603904  0.8361950732804381  1.0000
  Si  Si82      1.0  0.6854928165270291  0.3124803434952838  0.845157305443538  1.0000
  Si  Si83      1.0  0.4424191760905738  0.30846781222840397  0.8417108422450283  1.0000
  Si  Si84      1.0  0.4414989867909392  0.14744816337625563  0.8509978998386176  1.0000
  Si  Si85      1.0  0.8238287089548805  0.7349454227626518  0.8501999870918348  1.0000
  Si  Si86      1.0  0.8249466633884555  0.12651638345361801  0.8494076794311616  1.0000
  Si  Si87      1.0  0.034630595014923514  0.23537903828437026  0.9672764449542495  1.0000
  Si  Si88      1.0  0.023643253941211022  0.008570848522407904  0.9735299466535694  1.0000
  Si  Si89      1.0  0.02180673664069645  0.8494283056498525  0.9761731468259248  1.0000
  Si  Si90      1.0  0.8675549674692409  0.8539122945186706  0.9788937802049528  1.0000
  Si  Si91      1.0  0.869879896305107  0.006576150776482636  0.9777978910190281  1.0000
  Si  Si92      1.0  0.8796556602528253  0.24357900348138312  0.9833686056394484  1.0000
  Si  Si93      1.0  0.026889156463985823  0.622950357522903  0.9870548867793791  1.0000
  Si  Si94      1.0  0.8714855246517943  0.6160619060892387  0.9907234052516347  1.0000
  Pd  Pd1       1.0  0.37297031939026765  0.4329852696114879  0.5334365653723239  1.0000
  Au  Au1       1.0  0.5012521897446455  0.42683771500481504  0.5146484361652419  1.0000
